MODEL 1
REMARK VINA RESULT:      -4.2      0.000      0.000
REMARK  Name = methylxanthine
REMARK  1 active torsions:
REMARK  status: ('A' for Active; 'I' for Inactive)
REMARK    1  A    between atoms: C_1  and  N_2
REMARK                            x       y       z     vdW  Elec       q    Type
REMARK                         _______ _______ _______ _____ _____    ______ ____
ROOT
ATOM      1  C   UNL     1      -3.609  17.250  61.722  0.00  0.00    +0.000 C 
ATOM      2  N   UNL     1      -4.354  18.272  61.034  0.00  0.00    +0.000 N 
ATOM      3  C   UNL     1      -4.509  18.408  59.677  0.00  0.00    +0.000 A 
ATOM      4  N   UNL     1      -5.254  19.456  59.369  0.00  0.00    +0.000 NA
ATOM      5  C   UNL     1      -5.577  19.994  60.571  0.00  0.00    +0.000 A 
ATOM      6  C   UNL     1      -5.042  19.294  61.613  0.00  0.00    +0.000 A 
ATOM      7  C   UNL     1      -5.242  19.665  62.970  0.00  0.00    +0.000 A 
ATOM      8  O   UNL     1      -4.784  19.063  63.935  0.00  0.00    +0.000 OA
ATOM      9  N   UNL     1      -6.020  20.796  63.101  0.00  0.00    +0.000 N 
ATOM     10  C   UNL     1      -6.583  21.530  62.075  0.00  0.00    +0.000 A 
ATOM     11  O   UNL     1      -7.270  22.521  62.313  0.00  0.00    +0.000 OA
ATOM     12  N   UNL     1      -6.340  21.101  60.793  0.00  0.00    +0.000 N 
ATOM     13  H   UNL     1      -6.202  21.116  64.038  0.00  0.00    +0.000 HD
ATOM     14  H   UNL     1      -6.729  21.605  60.011  0.00  0.00    +0.000 HD
ENDROOT
TORSDOF 0
ENDMDL
MODEL 2
REMARK VINA RESULT:      -4.2      1.633      2.588
REMARK  Name = methylxanthine
REMARK  1 active torsions:
REMARK  status: ('A' for Active; 'I' for Inactive)
REMARK    1  A    between atoms: C_1  and  N_2
REMARK                            x       y       z     vdW  Elec       q    Type
REMARK                         _______ _______ _______ _____ _____    ______ ____
ROOT
ATOM      1  C   UNL     1      -3.709  17.504  60.864  0.00  0.00    +0.000 C 
ATOM      2  N   UNL     1      -4.215  18.341  61.921  0.00  0.00    +0.000 N 
ATOM      3  C   UNL     1      -3.976  18.208  63.265  0.00  0.00    +0.000 A 
ATOM      4  N   UNL     1      -4.592  19.143  63.970  0.00  0.00    +0.000 NA
ATOM      5  C   UNL     1      -5.237  19.886  63.037  0.00  0.00    +0.000 A 
ATOM      6  C   UNL     1      -5.028  19.424  61.771  0.00  0.00    +0.000 A 
ATOM      7  C   UNL     1      -5.600  20.039  60.624  0.00  0.00    +0.000 A 
ATOM      8  O   UNL     1      -5.435  19.659  59.470  0.00  0.00    +0.000 OA
ATOM      9  N   UNL     1      -6.378  21.132  60.944  0.00  0.00    +0.000 N 
ATOM     10  C   UNL     1      -6.611  21.634  62.208  0.00  0.00    +0.000 A 
ATOM     11  O   UNL     1      -7.320  22.625  62.372  0.00  0.00    +0.000 OA
ATOM     12  N   UNL     1      -6.019  20.979  63.260  0.00  0.00    +0.000 N 
ATOM     13  H   UNL     1      -6.815  21.617  60.177  0.00  0.00    +0.000 HD
ATOM     14  H   UNL     1      -6.161  21.308  64.203  0.00  0.00    +0.000 HD
ENDROOT
TORSDOF 0
ENDMDL
MODEL 3
REMARK VINA RESULT:      -4.0      8.245      9.210
REMARK  Name = methylxanthine
REMARK  1 active torsions:
REMARK  status: ('A' for Active; 'I' for Inactive)
REMARK    1  A    between atoms: C_1  and  N_2
REMARK                            x       y       z     vdW  Elec       q    Type
REMARK                         _______ _______ _______ _____ _____    ______ ____
ROOT
ATOM      1  C   UNL     1      -1.422  18.403  68.091  0.00  0.00    +0.000 C 
ATOM      2  N   UNL     1      -2.415  18.453  69.133  0.00  0.00    +0.000 N 
ATOM      3  C   UNL     1      -3.159  17.407  69.617  0.00  0.00    +0.000 A 
ATOM      4  N   UNL     1      -3.984  17.790  70.575  0.00  0.00    +0.000 NA
ATOM      5  C   UNL     1      -3.751  19.120  70.698  0.00  0.00    +0.000 A 
ATOM      6  C   UNL     1      -2.795  19.561  69.830  0.00  0.00    +0.000 A 
ATOM      7  C   UNL     1      -2.378  20.918  69.771  0.00  0.00    +0.000 A 
ATOM      8  O   UNL     1      -1.521  21.354  69.010  0.00  0.00    +0.000 OA
ATOM      9  N   UNL     1      -3.046  21.716  70.675  0.00  0.00    +0.000 N 
ATOM     10  C   UNL     1      -4.015  21.311  71.571  0.00  0.00    +0.000 A 
ATOM     11  O   UNL     1      -4.538  22.115  72.340  0.00  0.00    +0.000 OA
ATOM     12  N   UNL     1      -4.358  19.981  71.562  0.00  0.00    +0.000 N 
ATOM     13  H   UNL     1      -2.799  22.693  70.687  0.00  0.00    +0.000 HD
ATOM     14  H   UNL     1      -5.061  19.638  72.199  0.00  0.00    +0.000 HD
ENDROOT
TORSDOF 0
ENDMDL
MODEL 4
REMARK VINA RESULT:      -3.8     15.159     15.995
REMARK  Name = methylxanthine
REMARK  1 active torsions:
REMARK  status: ('A' for Active; 'I' for Inactive)
REMARK    1  A    between atoms: C_1  and  N_2
REMARK                            x       y       z     vdW  Elec       q    Type
REMARK                         _______ _______ _______ _____ _____    ______ ____
ROOT
ATOM      1  C   UNL     1     -11.372   3.021  60.862  0.00  0.00    +0.000 C 
ATOM      2  N   UNL     1     -12.281   3.803  60.064  0.00  0.00    +0.000 N 
ATOM      3  C   UNL     1     -13.401   3.355  59.411  0.00  0.00    +0.000 A 
ATOM      4  N   UNL     1     -14.018   4.329  58.765  0.00  0.00    +0.000 NA
ATOM      5  C   UNL     1     -13.261   5.424  59.021  0.00  0.00    +0.000 A 
ATOM      6  C   UNL     1     -12.189   5.139  59.814  0.00  0.00    +0.000 A 
ATOM      7  C   UNL     1     -11.250   6.125  60.221  0.00  0.00    +0.000 A 
ATOM      8  O   UNL     1     -10.276   5.912  60.935  0.00  0.00    +0.000 OA
ATOM      9  N   UNL     1     -11.547   7.375  59.721  0.00  0.00    +0.000 N 
ATOM     10  C   UNL     1     -12.621   7.707  58.921  0.00  0.00    +0.000 A 
ATOM     11  O   UNL     1     -12.791   8.864  58.541  0.00  0.00    +0.000 OA
ATOM     12  N   UNL     1     -13.481   6.694  58.576  0.00  0.00    +0.000 N 
ATOM     13  H   UNL     1     -10.920   8.124  59.970  0.00  0.00    +0.000 HD
ATOM     14  H   UNL     1     -14.280   6.887  57.991  0.00  0.00    +0.000 HD
ENDROOT
TORSDOF 0
ENDMDL
MODEL 5
REMARK VINA RESULT:      -3.8     17.218     18.547
REMARK  Name = methylxanthine
REMARK  1 active torsions:
REMARK  status: ('A' for Active; 'I' for Inactive)
REMARK    1  A    between atoms: C_1  and  N_2
REMARK                            x       y       z     vdW  Elec       q    Type
REMARK                         _______ _______ _______ _____ _____    ______ ____
ROOT
ATOM      1  C   UNL     1      -5.868   8.733  72.511  0.00  0.00    +0.000 C 
ATOM      2  N   UNL     1      -6.385   7.518  73.086  0.00  0.00    +0.000 N 
ATOM      3  C   UNL     1      -6.352   6.263  72.532  0.00  0.00    +0.000 A 
ATOM      4  N   UNL     1      -6.914   5.362  73.319  0.00  0.00    +0.000 NA
ATOM      5  C   UNL     1      -7.313   6.074  74.401  0.00  0.00    +0.000 A 
ATOM      6  C   UNL     1      -7.005   7.399  74.293  0.00  0.00    +0.000 A 
ATOM      7  C   UNL     1      -7.322   8.347  75.303  0.00  0.00    +0.000 A 
ATOM      8  O   UNL     1      -7.060   9.543  75.247  0.00  0.00    +0.000 OA
ATOM      9  N   UNL     1      -7.969   7.777  76.379  0.00  0.00    +0.000 N 
ATOM     10  C   UNL     1      -8.295   6.444  76.530  0.00  0.00    +0.000 A 
ATOM     11  O   UNL     1      -8.868   6.046  77.542  0.00  0.00    +0.000 OA
ATOM     12  N   UNL     1      -7.951   5.596  75.506  0.00  0.00    +0.000 N 
ATOM     13  H   UNL     1      -8.224   8.393  77.133  0.00  0.00    +0.000 HD
ATOM     14  H   UNL     1      -8.170   4.613  75.570  0.00  0.00    +0.000 HD
ENDROOT
TORSDOF 0
ENDMDL
MODEL 6
REMARK VINA RESULT:      -3.7      8.867      9.969
REMARK  Name = methylxanthine
REMARK  1 active torsions:
REMARK  status: ('A' for Active; 'I' for Inactive)
REMARK    1  A    between atoms: C_1  and  N_2
REMARK                            x       y       z     vdW  Elec       q    Type
REMARK                         _______ _______ _______ _____ _____    ______ ____
ROOT
ATOM      1  C   UNL     1      -6.191  11.588  69.920  0.00  0.00    +0.000 C 
ATOM      2  N   UNL     1      -5.926  12.864  69.309  0.00  0.00    +0.000 N 
ATOM      3  C   UNL     1      -5.976  13.165  67.971  0.00  0.00    +0.000 A 
ATOM      4  N   UNL     1      -5.676  14.431  67.739  0.00  0.00    +0.000 NA
ATOM      5  C   UNL     1      -5.430  14.942  68.970  0.00  0.00    +0.000 A 
ATOM      6  C   UNL     1      -5.574  14.010  69.956  0.00  0.00    +0.000 A 
ATOM      7  C   UNL     1      -5.369  14.307  71.331  0.00  0.00    +0.000 A 
ATOM      8  O   UNL     1      -5.491  13.502  72.247  0.00  0.00    +0.000 OA
ATOM      9  N   UNL     1      -5.010  15.622  71.539  0.00  0.00    +0.000 N 
ATOM     10  C   UNL     1      -4.858  16.596  70.573  0.00  0.00    +0.000 A 
ATOM     11  O   UNL     1      -4.542  17.744  70.879  0.00  0.00    +0.000 OA
ATOM     12  N   UNL     1      -5.076  16.224  69.270  0.00  0.00    +0.000 N 
ATOM     13  H   UNL     1      -4.849  15.903  72.493  0.00  0.00    +0.000 HD
ATOM     14  H   UNL     1      -4.976  16.900  68.528  0.00  0.00    +0.000 HD
ENDROOT
TORSDOF 0
ENDMDL
MODEL 7
REMARK VINA RESULT:      -3.7     17.391     18.692
REMARK  Name = methylxanthine
REMARK  1 active torsions:
REMARK  status: ('A' for Active; 'I' for Inactive)
REMARK    1  A    between atoms: C_1  and  N_2
REMARK                            x       y       z     vdW  Elec       q    Type
REMARK                         _______ _______ _______ _____ _____    ______ ____
ROOT
ATOM      1  C   UNL     1      -6.058   6.093  71.651  0.00  0.00    +0.000 C 
ATOM      2  N   UNL     1      -6.925   6.818  72.544  0.00  0.00    +0.000 N 
ATOM      3  C   UNL     1      -7.516   8.035  72.315  0.00  0.00    +0.000 A 
ATOM      4  N   UNL     1      -8.253   8.426  73.340  0.00  0.00    +0.000 NA
ATOM      5  C   UNL     1      -8.121   7.422  74.242  0.00  0.00    +0.000 A 
ATOM      6  C   UNL     1      -7.315   6.420  73.787  0.00  0.00    +0.000 A 
ATOM      7  C   UNL     1      -7.025   5.259  74.554  0.00  0.00    +0.000 A 
ATOM      8  O   UNL     1      -6.310   4.334  74.183  0.00  0.00    +0.000 OA
ATOM      9  N   UNL     1      -7.643   5.272  75.787  0.00  0.00    +0.000 N 
ATOM     10  C   UNL     1      -8.468   6.262  76.283  0.00  0.00    +0.000 A 
ATOM     11  O   UNL     1      -8.972   6.162  77.399  0.00  0.00    +0.000 OA
ATOM     12  N   UNL     1      -8.695   7.349  75.475  0.00  0.00    +0.000 N 
ATOM     13  H   UNL     1      -7.481   4.478  76.385  0.00  0.00    +0.000 HD
ATOM     14  H   UNL     1      -9.290   8.099  75.794  0.00  0.00    +0.000 HD
ENDROOT
TORSDOF 0
ENDMDL
MODEL 8
REMARK VINA RESULT:      -3.7      9.199     10.173
REMARK  Name = methylxanthine
REMARK  1 active torsions:
REMARK  status: ('A' for Active; 'I' for Inactive)
REMARK    1  A    between atoms: C_1  and  N_2
REMARK                            x       y       z     vdW  Elec       q    Type
REMARK                         _______ _______ _______ _____ _____    ______ ____
ROOT
ATOM      1  C   UNL     1      -4.157  10.433  69.547  0.00  0.00    +0.000 C 
ATOM      2  N   UNL     1      -4.850  11.394  68.730  0.00  0.00    +0.000 N 
ATOM      3  C   UNL     1      -4.907  11.425  67.360  0.00  0.00    +0.000 A 
ATOM      4  N   UNL     1      -5.628  12.441  66.919  0.00  0.00    +0.000 NA
ATOM      5  C   UNL     1      -6.038  13.069  68.049  0.00  0.00    +0.000 A 
ATOM      6  C   UNL     1      -5.580  12.454  69.177  0.00  0.00    +0.000 A 
ATOM      7  C   UNL     1      -5.878  12.926  70.484  0.00  0.00    +0.000 A 
ATOM      8  O   UNL     1      -5.491  12.403  71.523  0.00  0.00    +0.000 OA
ATOM      9  N   UNL     1      -6.664  14.059  70.470  0.00  0.00    +0.000 N 
ATOM     10  C   UNL     1      -7.151  14.709  69.353  0.00  0.00    +0.000 A 
ATOM     11  O   UNL     1      -7.854  15.711  69.464  0.00  0.00    +0.000 OA
ATOM     12  N   UNL     1      -6.816  14.184  68.129  0.00  0.00    +0.000 N 
ATOM     13  H   UNL     1      -6.914  14.449  71.364  0.00  0.00    +0.000 HD
ATOM     14  H   UNL     1      -7.147  14.625  67.284  0.00  0.00    +0.000 HD
ENDROOT
TORSDOF 0
ENDMDL
MODEL 9
REMARK VINA RESULT:      -3.6     17.448     18.783
REMARK  Name = methylxanthine
REMARK  1 active torsions:
REMARK  status: ('A' for Active; 'I' for Inactive)
REMARK    1  A    between atoms: C_1  and  N_2
REMARK                            x       y       z     vdW  Elec       q    Type
REMARK                         _______ _______ _______ _____ _____    ______ ____
ROOT
ATOM      1  C   UNL     1      -6.740   7.177  78.138  0.00  0.00    +0.000 C 
ATOM      2  N   UNL     1      -6.946   7.860  76.887  0.00  0.00    +0.000 N 
ATOM      3  C   UNL     1      -6.926   9.215  76.673  0.00  0.00    +0.000 A 
ATOM      4  N   UNL     1      -7.153   9.518  75.406  0.00  0.00    +0.000 NA
ATOM      5  C   UNL     1      -7.322   8.314  74.806  0.00  0.00    +0.000 A 
ATOM      6  C   UNL     1      -7.201   7.276  75.683  0.00  0.00    +0.000 A 
ATOM      7  C   UNL     1      -7.337   5.917  75.289  0.00  0.00    +0.000 A 
ATOM      8  O   UNL     1      -7.232   4.956  76.042  0.00  0.00    +0.000 OA
ATOM      9  N   UNL     1      -7.603   5.781  73.943  0.00  0.00    +0.000 N 
ATOM     10  C   UNL     1      -7.729   6.803  73.022  0.00  0.00    +0.000 A 
ATOM     11  O   UNL     1      -7.960   6.560  71.840  0.00  0.00    +0.000 OA
ATOM     12  N   UNL     1      -7.582   8.086  73.488  0.00  0.00    +0.000 N 
ATOM     13  H   UNL     1      -7.712   4.843  73.594  0.00  0.00    +0.000 HD
ATOM     14  H   UNL     1      -7.666   8.866  72.853  0.00  0.00    +0.000 HD
ENDROOT
TORSDOF 0
ENDMDL
