MODEL 1
REMARK VINA RESULT:      -3.6      0.000      0.000
REMARK  Name = acetic_acid_anhydride
REMARK  4 active torsions:
REMARK  status: ('A' for Active; 'I' for Inactive)
REMARK    1  A    between atoms: C_1  and  C_2
REMARK    2  A    between atoms: C_2  and  O_4
REMARK    3  A    between atoms: O_4  and  C_5
REMARK    4  A    between atoms: C_5  and  C_7
REMARK                            x       y       z     vdW  Elec       q    Type
REMARK                         _______ _______ _______ _____ _____    ______ ____
ROOT
ATOM      1  O   UNL     1      -4.316  19.974  72.263  0.00  0.00    +0.000 OA
ENDROOT
BRANCH   1   3
ATOM      2  C   UNL     1      -6.275  19.977  70.888  0.00  0.00    +0.000 C 
ATOM      3  C   UNL     1      -5.089  19.220  71.425  0.00  0.00    +0.000 C 
ATOM      4  O   UNL     1      -4.908  18.051  71.093  0.00  0.00    +0.000 OA
ENDBRANCH   1   3
BRANCH   1   5
ATOM      5  C   UNL     1      -3.967  21.210  71.797  0.00  0.00    +0.000 C 
ATOM      6  O   UNL     1      -4.318  22.300  72.240  0.00  0.00    +0.000 OA
ATOM      7  C   UNL     1      -3.048  21.159  70.606  0.00  0.00    +0.000 C 
ENDBRANCH   1   5
TORSDOF 2
ENDMDL
MODEL 2
REMARK VINA RESULT:      -3.6      1.602      2.317
REMARK  Name = acetic_acid_anhydride
REMARK  4 active torsions:
REMARK  status: ('A' for Active; 'I' for Inactive)
REMARK    1  A    between atoms: C_1  and  C_2
REMARK    2  A    between atoms: C_2  and  O_4
REMARK    3  A    between atoms: O_4  and  C_5
REMARK    4  A    between atoms: C_5  and  C_7
REMARK                            x       y       z     vdW  Elec       q    Type
REMARK                         _______ _______ _______ _____ _____    ______ ____
ROOT
ATOM      1  O   UNL     1      -3.354  20.278  72.439  0.00  0.00    +0.000 OA
ENDROOT
BRANCH   1   3
ATOM      2  C   UNL     1      -5.451  19.877  71.357  0.00  0.00    +0.000 C 
ATOM      3  C   UNL     1      -4.407  20.869  71.797  0.00  0.00    +0.000 C 
ATOM      4  O   UNL     1      -4.562  22.065  71.566  0.00  0.00    +0.000 OA
ENDBRANCH   1   3
BRANCH   1   5
ATOM      5  C   UNL     1      -2.118  20.778  72.136  0.00  0.00    +0.000 C 
ATOM      6  O   UNL     1      -1.478  21.616  72.766  0.00  0.00    +0.000 OA
ATOM      7  C   UNL     1      -1.533  20.195  70.878  0.00  0.00    +0.000 C 
ENDBRANCH   1   5
TORSDOF 2
ENDMDL
MODEL 3
REMARK VINA RESULT:      -3.5      1.599      3.180
REMARK  Name = acetic_acid_anhydride
REMARK  4 active torsions:
REMARK  status: ('A' for Active; 'I' for Inactive)
REMARK    1  A    between atoms: C_1  and  C_2
REMARK    2  A    between atoms: C_2  and  O_4
REMARK    3  A    between atoms: O_4  and  C_5
REMARK    4  A    between atoms: C_5  and  C_7
REMARK                            x       y       z     vdW  Elec       q    Type
REMARK                         _______ _______ _______ _____ _____    ______ ____
ROOT
ATOM      1  O   UNL     1      -3.294  20.228  72.365  0.00  0.00    +0.000 OA
ENDROOT
BRANCH   1   3
ATOM      2  C   UNL     1      -1.478  20.303  70.808  0.00  0.00    +0.000 C 
ATOM      3  C   UNL     1      -2.074  20.787  72.104  0.00  0.00    +0.000 C 
ATOM      4  O   UNL     1      -1.464  21.600  72.793  0.00  0.00    +0.000 OA
ENDBRANCH   1   3
BRANCH   1   5
ATOM      5  C   UNL     1      -4.379  20.959  71.967  0.00  0.00    +0.000 C 
ATOM      6  O   UNL     1      -4.591  22.151  72.173  0.00  0.00    +0.000 OA
ATOM      7  C   UNL     1      -5.388  20.152  71.193  0.00  0.00    +0.000 C 
ENDBRANCH   1   5
TORSDOF 2
ENDMDL
MODEL 4
REMARK VINA RESULT:      -3.1      1.033      3.332
REMARK  Name = acetic_acid_anhydride
REMARK  4 active torsions:
REMARK  status: ('A' for Active; 'I' for Inactive)
REMARK    1  A    between atoms: C_1  and  C_2
REMARK    2  A    between atoms: C_2  and  O_4
REMARK    3  A    between atoms: O_4  and  C_5
REMARK    4  A    between atoms: C_5  and  C_7
REMARK                            x       y       z     vdW  Elec       q    Type
REMARK                         _______ _______ _______ _____ _____    ______ ____
ROOT
ATOM      1  O   UNL     1      -3.923  20.024  70.792  0.00  0.00    +0.000 OA
ENDROOT
BRANCH   1   3
ATOM      2  C   UNL     1      -1.820  20.733  71.688  0.00  0.00    +0.000 C 
ATOM      3  C   UNL     1      -3.314  20.913  71.634  0.00  0.00    +0.000 C 
ATOM      4  O   UNL     1      -3.850  21.790  72.306  0.00  0.00    +0.000 OA
ENDBRANCH   1   3
BRANCH   1   5
ATOM      5  C   UNL     1      -5.070  19.449  71.265  0.00  0.00    +0.000 C 
ATOM      6  O   UNL     1      -5.164  18.494  72.031  0.00  0.00    +0.000 OA
ATOM      7  C   UNL     1      -6.321  20.109  70.751  0.00  0.00    +0.000 C 
ENDBRANCH   1   5
TORSDOF 2
ENDMDL
MODEL 5
REMARK VINA RESULT:      -3.1     10.030     10.615
REMARK  Name = acetic_acid_anhydride
REMARK  4 active torsions:
REMARK  status: ('A' for Active; 'I' for Inactive)
REMARK    1  A    between atoms: C_1  and  C_2
REMARK    2  A    between atoms: C_2  and  O_4
REMARK    3  A    between atoms: O_4  and  C_5
REMARK    4  A    between atoms: C_5  and  C_7
REMARK                            x       y       z     vdW  Elec       q    Type
REMARK                         _______ _______ _______ _____ _____    ______ ____
ROOT
ATOM      1  O   UNL     1      -5.333  21.185  61.224  0.00  0.00    +0.000 OA
ENDROOT
BRANCH   1   3
ATOM      2  C   UNL     1      -5.981  20.701  63.477  0.00  0.00    +0.000 C 
ATOM      3  C   UNL     1      -6.215  21.499  62.221  0.00  0.00    +0.000 C 
ATOM      4  O   UNL     1      -7.122  22.326  62.181  0.00  0.00    +0.000 OA
ENDBRANCH   1   3
BRANCH   1   5
ATOM      5  C   UNL     1      -5.723  20.181  60.383  0.00  0.00    +0.000 C 
ATOM      6  O   UNL     1      -6.721  20.153  59.668  0.00  0.00    +0.000 OA
ATOM      7  C   UNL     1      -4.779  19.008  60.379  0.00  0.00    +0.000 C 
ENDBRANCH   1   5
TORSDOF 2
ENDMDL
MODEL 6
REMARK VINA RESULT:      -3.0      9.905     10.320
REMARK  Name = acetic_acid_anhydride
REMARK  4 active torsions:
REMARK  status: ('A' for Active; 'I' for Inactive)
REMARK    1  A    between atoms: C_1  and  C_2
REMARK    2  A    between atoms: C_2  and  O_4
REMARK    3  A    between atoms: O_4  and  C_5
REMARK    4  A    between atoms: C_5  and  C_7
REMARK                            x       y       z     vdW  Elec       q    Type
REMARK                         _______ _______ _______ _____ _____    ______ ____
ROOT
ATOM      1  O   UNL     1      -5.248  21.158  61.233  0.00  0.00    +0.000 OA
ENDROOT
BRANCH   1   3
ATOM      2  C   UNL     1      -6.415  20.066  59.451  0.00  0.00    +0.000 C 
ATOM      3  C   UNL     1      -5.432  19.966  60.587  0.00  0.00    +0.000 C 
ATOM      4  O   UNL     1      -4.895  18.891  60.840  0.00  0.00    +0.000 OA
ENDBRANCH   1   3
BRANCH   1   5
ATOM      5  C   UNL     1      -6.168  21.458  62.197  0.00  0.00    +0.000 C 
ATOM      6  O   UNL     1      -7.101  22.253  62.116  0.00  0.00    +0.000 OA
ATOM      7  C   UNL     1      -5.959  20.694  63.478  0.00  0.00    +0.000 C 
ENDBRANCH   1   5
TORSDOF 2
ENDMDL
MODEL 7
REMARK VINA RESULT:      -3.0      8.990      9.687
REMARK  Name = acetic_acid_anhydride
REMARK  4 active torsions:
REMARK  status: ('A' for Active; 'I' for Inactive)
REMARK    1  A    between atoms: C_1  and  C_2
REMARK    2  A    between atoms: C_2  and  O_4
REMARK    3  A    between atoms: O_4  and  C_5
REMARK    4  A    between atoms: C_5  and  C_7
REMARK                            x       y       z     vdW  Elec       q    Type
REMARK                         _______ _______ _______ _____ _____    ______ ____
ROOT
ATOM      1  O   UNL     1      -5.947  20.286  61.580  0.00  0.00    +0.000 OA
ENDROOT
BRANCH   1   3
ATOM      2  C   UNL     1      -4.679  22.253  62.079  0.00  0.00    +0.000 C 
ATOM      3  C   UNL     1      -6.030  21.598  61.955  0.00  0.00    +0.000 C 
ATOM      4  O   UNL     1      -7.048  22.245  62.184  0.00  0.00    +0.000 OA
ENDBRANCH   1   3
BRANCH   1   5
ATOM      5  C   UNL     1      -5.529  19.417  62.549  0.00  0.00    +0.000 C 
ATOM      6  O   UNL     1      -5.996  19.275  63.675  0.00  0.00    +0.000 OA
ATOM      7  C   UNL     1      -4.361  18.568  62.122  0.00  0.00    +0.000 C 
ENDBRANCH   1   5
TORSDOF 2
ENDMDL
MODEL 8
REMARK VINA RESULT:      -2.8     10.122     11.336
REMARK  Name = acetic_acid_anhydride
REMARK  4 active torsions:
REMARK  status: ('A' for Active; 'I' for Inactive)
REMARK    1  A    between atoms: C_1  and  C_2
REMARK    2  A    between atoms: C_2  and  O_4
REMARK    3  A    between atoms: O_4  and  C_5
REMARK    4  A    between atoms: C_5  and  C_7
REMARK                            x       y       z     vdW  Elec       q    Type
REMARK                         _______ _______ _______ _____ _____    ______ ____
ROOT
ATOM      1  O   UNL     1      -7.468  10.394  76.787  0.00  0.00    +0.000 OA
ENDROOT
BRANCH   1   3
ATOM      2  C   UNL     1      -7.034   8.043  76.676  0.00  0.00    +0.000 C 
ATOM      3  C   UNL     1      -7.026   9.380  75.983  0.00  0.00    +0.000 C 
ATOM      4  O   UNL     1      -6.648   9.464  74.818  0.00  0.00    +0.000 OA
ENDBRANCH   1   3
BRANCH   1   5
ATOM      5  C   UNL     1      -6.749  11.555  76.726  0.00  0.00    +0.000 C 
ATOM      6  O   UNL     1      -7.046  12.585  76.125  0.00  0.00    +0.000 OA
ATOM      7  C   UNL     1      -5.462  11.500  77.503  0.00  0.00    +0.000 C 
ENDBRANCH   1   5
TORSDOF 2
ENDMDL
MODEL 9
REMARK VINA RESULT:      -2.8     14.089     15.249
REMARK  Name = acetic_acid_anhydride
REMARK  4 active torsions:
REMARK  status: ('A' for Active; 'I' for Inactive)
REMARK    1  A    between atoms: C_1  and  C_2
REMARK    2  A    between atoms: C_2  and  O_4
REMARK    3  A    between atoms: O_4  and  C_5
REMARK    4  A    between atoms: C_5  and  C_7
REMARK                            x       y       z     vdW  Elec       q    Type
REMARK                         _______ _______ _______ _____ _____    ______ ____
ROOT
ATOM      1  O   UNL     1      -9.165   6.422  65.477  0.00  0.00    +0.000 OA
ENDROOT
BRANCH   1   3
ATOM      2  C   UNL     1      -9.422   5.187  67.511  0.00  0.00    +0.000 C 
ATOM      3  C   UNL     1     -10.017   6.140  66.508  0.00  0.00    +0.000 C 
ATOM      4  O   UNL     1     -11.154   6.573  66.675  0.00  0.00    +0.000 OA
ENDBRANCH   1   3
BRANCH   1   5
ATOM      5  C   UNL     1      -8.715   7.711  65.415  0.00  0.00    +0.000 C 
ATOM      6  O   UNL     1      -9.342   8.703  65.055  0.00  0.00    +0.000 OA
ATOM      7  C   UNL     1      -7.282   7.861  65.851  0.00  0.00    +0.000 C 
ENDBRANCH   1   5
TORSDOF 2
ENDMDL
