MODEL 1
REMARK VINA RESULT:      -4.2      0.000      0.000
REMARK  Name = paracetamol
REMARK  5 active torsions:
REMARK  status: ('A' for Active; 'I' for Inactive)
REMARK    1  A    between atoms: C_1  and  C_2
REMARK    2  A    between atoms: C_4  and  C_9
REMARK    3  A    between atoms: C_5  and  O_8
REMARK    4  A    between atoms: C_9  and  C_10
REMARK    5  A    between atoms: C_9  and  C_11
REMARK                            x       y       z     vdW  Elec       q    Type
REMARK                         _______ _______ _______ _____ _____    ______ ____
ROOT
ATOM      1  C   UNL     1      -3.665  17.846  63.425  0.00  0.00    +0.000 C 
ATOM      2  C   UNL     1      -4.561  18.902  62.851  0.00  0.00    +0.000 A 
ATOM      3  C   UNL     1      -4.702  19.085  61.465  0.00  0.00    +0.000 A 
ATOM      4  C   UNL     1      -5.538  20.091  60.906  0.00  0.00    +0.000 A 
ATOM      5  C   UNL     1      -6.194  20.933  61.821  0.00  0.00    +0.000 A 
ATOM      6  C   UNL     1      -6.066  20.741  63.201  0.00  0.00    +0.000 A 
ATOM      7  C   UNL     1      -5.266  19.733  63.715  0.00  0.00    +0.000 A 
ENDROOT
BRANCH   4   8
ATOM      8  C   UNL     1      -5.621  20.121  59.375  0.00  0.00    +0.000 C 
ATOM      9  C   UNL     1      -4.366  20.765  58.759  0.00  0.00    +0.000 C 
ATOM     10  C   UNL     1      -5.837  18.786  58.666  0.00  0.00    +0.000 C 
ENDBRANCH   4   8
BRANCH   5  11
ATOM     11  O   UNL     1      -7.012  21.990  61.553  0.00  0.00    +0.000 OA
ATOM     12  H   UNL     1      -6.987  22.657  62.246  0.00  0.00    +0.000 HD
ENDBRANCH   5  11
TORSDOF 2
ENDMDL
MODEL 2
REMARK VINA RESULT:      -4.1      1.244      3.651
REMARK  Name = paracetamol
REMARK  5 active torsions:
REMARK  status: ('A' for Active; 'I' for Inactive)
REMARK    1  A    between atoms: C_1  and  C_2
REMARK    2  A    between atoms: C_4  and  C_9
REMARK    3  A    between atoms: C_5  and  O_8
REMARK    4  A    between atoms: C_9  and  C_10
REMARK    5  A    between atoms: C_9  and  C_11
REMARK                            x       y       z     vdW  Elec       q    Type
REMARK                         _______ _______ _______ _____ _____    ______ ____
ROOT
ATOM      1  C   UNL     1      -3.969  17.062  59.357  0.00  0.00    +0.000 C 
ATOM      2  C   UNL     1      -4.720  18.233  59.915  0.00  0.00    +0.000 A 
ATOM      3  C   UNL     1      -4.715  18.535  61.288  0.00  0.00    +0.000 A 
ATOM      4  C   UNL     1      -5.433  19.634  61.834  0.00  0.00    +0.000 A 
ATOM      5  C   UNL     1      -6.193  20.392  60.926  0.00  0.00    +0.000 A 
ATOM      6  C   UNL     1      -6.186  20.102  59.558  0.00  0.00    +0.000 A 
ATOM      7  C   UNL     1      -5.453  19.041  59.052  0.00  0.00    +0.000 A 
ENDROOT
BRANCH   4   8
ATOM      8  C   UNL     1      -5.276  19.855  63.344  0.00  0.00    +0.000 C 
ATOM      9  C   UNL     1      -4.584  18.655  64.016  0.00  0.00    +0.000 C 
ATOM     10  C   UNL     1      -4.532  21.111  63.789  0.00  0.00    +0.000 C 
ENDBRANCH   4   8
BRANCH   5  11
ATOM     11  O   UNL     1      -6.996  21.462  61.191  0.00  0.00    +0.000 OA
ATOM     12  H   UNL     1      -6.530  22.299  61.101  0.00  0.00    +0.000 HD
ENDBRANCH   5  11
TORSDOF 2
ENDMDL
MODEL 3
REMARK VINA RESULT:      -3.9      3.357      5.157
REMARK  Name = paracetamol
REMARK  5 active torsions:
REMARK  status: ('A' for Active; 'I' for Inactive)
REMARK    1  A    between atoms: C_1  and  C_2
REMARK    2  A    between atoms: C_4  and  C_9
REMARK    3  A    between atoms: C_5  and  O_8
REMARK    4  A    between atoms: C_9  and  C_10
REMARK    5  A    between atoms: C_9  and  C_11
REMARK                            x       y       z     vdW  Elec       q    Type
REMARK                         _______ _______ _______ _____ _____    ______ ____
ROOT
ATOM      1  C   UNL     1      -6.619  21.381  62.875  0.00  0.00    +0.000 C 
ATOM      2  C   UNL     1      -5.450  20.630  63.437  0.00  0.00    +0.000 A 
ATOM      3  C   UNL     1      -4.293  21.286  63.892  0.00  0.00    +0.000 A 
ATOM      4  C   UNL     1      -3.170  20.586  64.414  0.00  0.00    +0.000 A 
ATOM      5  C   UNL     1      -3.259  19.183  64.415  0.00  0.00    +0.000 A 
ATOM      6  C   UNL     1      -4.415  18.531  63.978  0.00  0.00    +0.000 A 
ATOM      7  C   UNL     1      -5.505  19.242  63.500  0.00  0.00    +0.000 A 
ENDROOT
BRANCH   4   8
ATOM      8  C   UNL     1      -2.012  21.456  64.917  0.00  0.00    +0.000 C 
ATOM      9  C   UNL     1      -1.615  22.518  63.874  0.00  0.00    +0.000 C 
ATOM     10  C   UNL     1      -2.214  22.183  66.244  0.00  0.00    +0.000 C 
ENDBRANCH   4   8
BRANCH   5  11
ATOM     11  O   UNL     1      -2.318  18.283  64.820  0.00  0.00    +0.000 OA
ATOM     12  H   UNL     1      -2.606  17.773  65.583  0.00  0.00    +0.000 HD
ENDBRANCH   5  11
TORSDOF 2
ENDMDL
MODEL 4
REMARK VINA RESULT:      -3.7     15.937     17.686
REMARK  Name = paracetamol
REMARK  5 active torsions:
REMARK  status: ('A' for Active; 'I' for Inactive)
REMARK    1  A    between atoms: C_1  and  C_2
REMARK    2  A    between atoms: C_4  and  C_9
REMARK    3  A    between atoms: C_5  and  O_8
REMARK    4  A    between atoms: C_9  and  C_10
REMARK    5  A    between atoms: C_9  and  C_11
REMARK                            x       y       z     vdW  Elec       q    Type
REMARK                         _______ _______ _______ _____ _____    ______ ____
ROOT
ATOM      1  C   UNL     1      -4.509   8.592  72.071  0.00  0.00    +0.000 C 
ATOM      2  C   UNL     1      -5.854   8.409  72.707  0.00  0.00    +0.000 A 
ATOM      3  C   UNL     1      -6.064   8.626  74.080  0.00  0.00    +0.000 A 
ATOM      4  C   UNL     1      -7.331   8.443  74.699  0.00  0.00    +0.000 A 
ATOM      5  C   UNL     1      -8.369   7.988  73.868  0.00  0.00    +0.000 A 
ATOM      6  C   UNL     1      -8.165   7.786  72.499  0.00  0.00    +0.000 A 
ATOM      7  C   UNL     1      -6.925   8.001  71.918  0.00  0.00    +0.000 A 
ENDROOT
BRANCH   4   8
ATOM      8  C   UNL     1      -7.401   8.776  76.194  0.00  0.00    +0.000 C 
ATOM      9  C   UNL     1      -6.478   7.857  77.016  0.00  0.00    +0.000 C 
ATOM     10  C   UNL     1      -7.085  10.213  76.602  0.00  0.00    +0.000 C 
ENDBRANCH   4   8
BRANCH   5  11
ATOM     11  O   UNL     1      -9.656   7.697  74.213  0.00  0.00    +0.000 OA
ATOM     12  H   UNL     1     -10.113   8.454  74.590  0.00  0.00    +0.000 HD
ENDBRANCH   5  11
TORSDOF 2
ENDMDL
MODEL 5
REMARK VINA RESULT:      -3.6     17.054     18.542
REMARK  Name = paracetamol
REMARK  5 active torsions:
REMARK  status: ('A' for Active; 'I' for Inactive)
REMARK    1  A    between atoms: C_1  and  C_2
REMARK    2  A    between atoms: C_4  and  C_9
REMARK    3  A    between atoms: C_5  and  O_8
REMARK    4  A    between atoms: C_9  and  C_10
REMARK    5  A    between atoms: C_9  and  C_11
REMARK                            x       y       z     vdW  Elec       q    Type
REMARK                         _______ _______ _______ _____ _____    ______ ____
ROOT
ATOM      1  C   UNL     1      -6.340   3.653  73.532  0.00  0.00    +0.000 C 
ATOM      2  C   UNL     1      -6.901   5.030  73.343  0.00  0.00    +0.000 A 
ATOM      3  C   UNL     1      -7.069   5.919  74.419  0.00  0.00    +0.000 A 
ATOM      4  C   UNL     1      -7.612   7.223  74.258  0.00  0.00    +0.000 A 
ATOM      5  C   UNL     1      -8.018   7.571  72.958  0.00  0.00    +0.000 A 
ATOM      6  C   UNL     1      -7.837   6.693  71.885  0.00  0.00    +0.000 A 
ATOM      7  C   UNL     1      -7.278   5.439  72.068  0.00  0.00    +0.000 A 
ENDROOT
BRANCH   4   8
ATOM      8  C   UNL     1      -7.676   8.085  75.525  0.00  0.00    +0.000 C 
ATOM      9  C   UNL     1      -7.549   7.223  76.795  0.00  0.00    +0.000 C 
ATOM     10  C   UNL     1      -6.660   9.219  75.646  0.00  0.00    +0.000 C 
ENDBRANCH   4   8
BRANCH   5  11
ATOM     11  O   UNL     1      -8.600   8.732  72.541  0.00  0.00    +0.000 OA
ATOM     12  H   UNL     1      -8.919   9.265  73.275  0.00  0.00    +0.000 HD
ENDBRANCH   5  11
TORSDOF 2
ENDMDL
MODEL 6
REMARK VINA RESULT:      -3.5     16.936     18.731
REMARK  Name = paracetamol
REMARK  5 active torsions:
REMARK  status: ('A' for Active; 'I' for Inactive)
REMARK    1  A    between atoms: C_1  and  C_2
REMARK    2  A    between atoms: C_4  and  C_9
REMARK    3  A    between atoms: C_5  and  O_8
REMARK    4  A    between atoms: C_9  and  C_10
REMARK    5  A    between atoms: C_9  and  C_11
REMARK                            x       y       z     vdW  Elec       q    Type
REMARK                         _______ _______ _______ _____ _____    ______ ____
ROOT
ATOM      1  C   UNL     1      -6.171  10.616  76.385  0.00  0.00    +0.000 C 
ATOM      2  C   UNL     1      -6.744   9.238  76.242  0.00  0.00    +0.000 A 
ATOM      3  C   UNL     1      -7.175   8.737  75.001  0.00  0.00    +0.000 A 
ATOM      4  C   UNL     1      -7.733   7.437  74.853  0.00  0.00    +0.000 A 
ATOM      5  C   UNL     1      -7.873   6.683  76.031  0.00  0.00    +0.000 A 
ATOM      6  C   UNL     1      -7.430   7.175  77.262  0.00  0.00    +0.000 A 
ATOM      7  C   UNL     1      -6.863   8.435  77.371  0.00  0.00    +0.000 A 
ENDROOT
BRANCH   4   8
ATOM      8  C   UNL     1      -8.102   7.025  73.423  0.00  0.00    +0.000 C 
ATOM      9  C   UNL     1      -8.011   8.219  72.455  0.00  0.00    +0.000 C 
ATOM     10  C   UNL     1      -7.305   5.881  72.802  0.00  0.00    +0.000 C 
ENDBRANCH   4   8
BRANCH   5  11
ATOM     11  O   UNL     1      -8.409   5.437  76.172  0.00  0.00    +0.000 OA
ATOM     12  H   UNL     1      -9.356   5.425  76.008  0.00  0.00    +0.000 HD
ENDBRANCH   5  11
TORSDOF 2
ENDMDL
MODEL 7
REMARK VINA RESULT:      -3.4      9.163      9.852
REMARK  Name = paracetamol
REMARK  5 active torsions:
REMARK  status: ('A' for Active; 'I' for Inactive)
REMARK    1  A    between atoms: C_1  and  C_2
REMARK    2  A    between atoms: C_4  and  C_9
REMARK    3  A    between atoms: C_5  and  O_8
REMARK    4  A    between atoms: C_9  and  C_10
REMARK    5  A    between atoms: C_9  and  C_11
REMARK                            x       y       z     vdW  Elec       q    Type
REMARK                         _______ _______ _______ _____ _____    ______ ____
ROOT
ATOM      1  C   UNL     1      -5.606  20.083  71.480  0.00  0.00    +0.000 C 
ATOM      2  C   UNL     1      -4.866  18.976  70.792  0.00  0.00    +0.000 A 
ATOM      3  C   UNL     1      -5.444  17.712  70.583  0.00  0.00    +0.000 A 
ATOM      4  C   UNL     1      -4.750  16.648  69.944  0.00  0.00    +0.000 A 
ATOM      5  C   UNL     1      -3.423  16.913  69.563  0.00  0.00    +0.000 A 
ATOM      6  C   UNL     1      -2.853  18.175  69.756  0.00  0.00    +0.000 A 
ATOM      7  C   UNL     1      -3.565  19.201  70.356  0.00  0.00    +0.000 A 
ENDROOT
BRANCH   4   8
ATOM      8  C   UNL     1      -5.544  15.351  69.747  0.00  0.00    +0.000 C 
ATOM      9  C   UNL     1      -5.366  14.398  70.943  0.00  0.00    +0.000 C 
ATOM     10  C   UNL     1      -7.044  15.486  69.497  0.00  0.00    +0.000 C 
ENDBRANCH   4   8
BRANCH   5  11
ATOM     11  O   UNL     1      -2.532  16.064  68.974  0.00  0.00    +0.000 OA
ATOM     12  H   UNL     1      -1.633  16.206  69.284  0.00  0.00    +0.000 HD
ENDBRANCH   5  11
TORSDOF 2
ENDMDL
MODEL 8
REMARK VINA RESULT:      -3.3      8.074      9.293
REMARK  Name = paracetamol
REMARK  5 active torsions:
REMARK  status: ('A' for Active; 'I' for Inactive)
REMARK    1  A    between atoms: C_1  and  C_2
REMARK    2  A    between atoms: C_4  and  C_9
REMARK    3  A    between atoms: C_5  and  O_8
REMARK    4  A    between atoms: C_9  and  C_10
REMARK    5  A    between atoms: C_9  and  C_11
REMARK                            x       y       z     vdW  Elec       q    Type
REMARK                         _______ _______ _______ _____ _____    ______ ____
ROOT
ATOM      1  C   UNL     1      -5.255  16.588  70.376  0.00  0.00    +0.000 C 
ATOM      2  C   UNL     1      -4.658  17.962  70.436  0.00  0.00    +0.000 A 
ATOM      3  C   UNL     1      -3.379  18.240  69.922  0.00  0.00    +0.000 A 
ATOM      4  C   UNL     1      -2.794  19.534  69.984  0.00  0.00    +0.000 A 
ATOM      5  C   UNL     1      -3.550  20.528  70.629  0.00  0.00    +0.000 A 
ATOM      6  C   UNL     1      -4.828  20.256  71.126  0.00  0.00    +0.000 A 
ATOM      7  C   UNL     1      -5.384  18.991  71.025  0.00  0.00    +0.000 A 
ENDROOT
BRANCH   4   8
ATOM      8  C   UNL     1      -1.414  19.679  69.329  0.00  0.00    +0.000 C 
ATOM      9  C   UNL     1      -0.345  18.877  70.093  0.00  0.00    +0.000 C 
ATOM     10  C   UNL     1      -1.301  19.291  67.856  0.00  0.00    +0.000 C 
ENDBRANCH   4   8
BRANCH   5  11
ATOM     11  O   UNL     1      -3.208  21.829  70.857  0.00  0.00    +0.000 OA
ATOM     12  H   UNL     1      -2.338  22.044  70.509  0.00  0.00    +0.000 HD
ENDBRANCH   5  11
TORSDOF 2
ENDMDL
MODEL 9
REMARK VINA RESULT:      -3.3      8.747      9.524
REMARK  Name = paracetamol
REMARK  5 active torsions:
REMARK  status: ('A' for Active; 'I' for Inactive)
REMARK    1  A    between atoms: C_1  and  C_2
REMARK    2  A    between atoms: C_4  and  C_9
REMARK    3  A    between atoms: C_5  and  O_8
REMARK    4  A    between atoms: C_9  and  C_10
REMARK    5  A    between atoms: C_9  and  C_11
REMARK                            x       y       z     vdW  Elec       q    Type
REMARK                         _______ _______ _______ _____ _____    ______ ____
ROOT
ATOM      1  C   UNL     1      -5.247  18.733  71.161  0.00  0.00    +0.000 C 
ATOM      2  C   UNL     1      -4.875  17.569  70.293  0.00  0.00    +0.000 A 
ATOM      3  C   UNL     1      -5.760  16.501  70.061  0.00  0.00    +0.000 A 
ATOM      4  C   UNL     1      -5.417  15.384  69.251  0.00  0.00    +0.000 A 
ATOM      5  C   UNL     1      -4.115  15.378  68.720  0.00  0.00    +0.000 A 
ATOM      6  C   UNL     1      -3.240  16.447  68.938  0.00  0.00    +0.000 A 
ATOM      7  C   UNL     1      -3.614  17.536  69.708  0.00  0.00    +0.000 A 
ENDROOT
BRANCH   4   8
ATOM      8  C   UNL     1      -6.517  14.333  69.056  0.00  0.00    +0.000 C 
ATOM      9  C   UNL     1      -6.935  14.229  67.577  0.00  0.00    +0.000 C 
ATOM     10  C   UNL     1      -6.218  12.917  69.541  0.00  0.00    +0.000 C 
ENDBRANCH   4   8
BRANCH   5  11
ATOM     11  O   UNL     1      -3.525  14.418  67.952  0.00  0.00    +0.000 OA
ATOM     12  H   UNL     1      -3.616  14.596  67.011  0.00  0.00    +0.000 HD
ENDBRANCH   5  11
TORSDOF 2
ENDMDL
