MODEL 1
REMARK VINA RESULT:      -4.2      0.000      0.000
REMARK  Name = ethyl_benzoate
REMARK  4 active torsions:
REMARK  status: ('A' for Active; 'I' for Inactive)
REMARK    1  A    between atoms: C_1  and  C_2
REMARK    2  A    between atoms: C_2  and  O_3
REMARK    3  A    between atoms: O_3  and  C_4
REMARK    4  A    between atoms: C_4  and  C_6
REMARK                            x       y       z     vdW  Elec       q    Type
REMARK                         _______ _______ _______ _____ _____    ______ ____
ROOT
ATOM      1  C   UNL     1      -5.455  20.616  62.919  0.00  0.00    +0.000 A 
ATOM      2  C   UNL     1      -4.386  21.386  63.400  0.00  0.00    +0.000 A 
ATOM      3  C   UNL     1      -3.359  20.792  64.139  0.00  0.00    +0.000 A 
ATOM      4  C   UNL     1      -3.424  19.436  64.455  0.00  0.00    +0.000 A 
ATOM      5  C   UNL     1      -4.494  18.667  63.997  0.00  0.00    +0.000 A 
ATOM      6  C   UNL     1      -5.508  19.251  63.223  0.00  0.00    +0.000 A 
ENDROOT
BRANCH   1   7
ATOM      7  C   UNL     1      -6.410  21.256  61.978  0.00  0.00    +0.000 C 
ATOM      8  O   UNL     1      -6.926  22.341  62.222  0.00  0.00    +0.000 OA
BRANCH   7   9
ATOM      9  O   UNL     1      -6.650  20.497  60.877  0.00  0.00    +0.000 OA
BRANCH   9  11
ATOM     10  C   UNL     1      -5.880  19.560  58.775  0.00  0.00    +0.000 C 
ATOM     11  C   UNL     1      -5.517  20.400  59.988  0.00  0.00    +0.000 C 
ENDBRANCH   9  11
ENDBRANCH   7   9
ENDBRANCH   1   7
TORSDOF 3
ENDMDL
MODEL 2
REMARK VINA RESULT:      -3.9      7.737      9.154
REMARK  Name = ethyl_benzoate
REMARK  4 active torsions:
REMARK  status: ('A' for Active; 'I' for Inactive)
REMARK    1  A    between atoms: C_1  and  C_2
REMARK    2  A    between atoms: C_2  and  O_3
REMARK    3  A    between atoms: O_3  and  C_4
REMARK    4  A    between atoms: C_4  and  C_6
REMARK                            x       y       z     vdW  Elec       q    Type
REMARK                         _______ _______ _______ _____ _____    ______ ____
ROOT
ATOM      1  C   UNL     1      -2.039  20.467  70.528  0.00  0.00    +0.000 A 
ATOM      2  C   UNL     1      -1.845  21.523  69.624  0.00  0.00    +0.000 A 
ATOM      3  C   UNL     1      -1.642  21.267  68.266  0.00  0.00    +0.000 A 
ATOM      4  C   UNL     1      -1.569  19.952  67.809  0.00  0.00    +0.000 A 
ATOM      5  C   UNL     1      -1.740  18.896  68.704  0.00  0.00    +0.000 A 
ATOM      6  C   UNL     1      -1.983  19.149  70.063  0.00  0.00    +0.000 A 
ENDROOT
BRANCH   1   7
ATOM      7  C   UNL     1      -2.446  20.800  71.917  0.00  0.00    +0.000 C 
ATOM      8  O   UNL     1      -1.807  21.591  72.604  0.00  0.00    +0.000 OA
BRANCH   7   9
ATOM      9  O   UNL     1      -3.551  20.119  72.318  0.00  0.00    +0.000 OA
BRANCH   9  11
ATOM     10  C   UNL     1      -5.588  19.673  71.078  0.00  0.00    +0.000 C 
ATOM     11  C   UNL     1      -4.786  20.704  71.855  0.00  0.00    +0.000 C 
ENDBRANCH   9  11
ENDBRANCH   7   9
ENDBRANCH   1   7
TORSDOF 3
ENDMDL
MODEL 3
REMARK VINA RESULT:      -3.8      7.947      8.789
REMARK  Name = ethyl_benzoate
REMARK  4 active torsions:
REMARK  status: ('A' for Active; 'I' for Inactive)
REMARK    1  A    between atoms: C_1  and  C_2
REMARK    2  A    between atoms: C_2  and  O_3
REMARK    3  A    between atoms: O_3  and  C_4
REMARK    4  A    between atoms: C_4  and  C_6
REMARK                            x       y       z     vdW  Elec       q    Type
REMARK                         _______ _______ _______ _____ _____    ______ ____
ROOT
ATOM      1  C   UNL     1      -4.714  18.410  70.622  0.00  0.00    +0.000 A 
ATOM      2  C   UNL     1      -3.403  18.571  70.146  0.00  0.00    +0.000 A 
ATOM      3  C   UNL     1      -2.779  19.820  70.195  0.00  0.00    +0.000 A 
ATOM      4  C   UNL     1      -3.481  20.931  70.661  0.00  0.00    +0.000 A 
ATOM      5  C   UNL     1      -4.791  20.783  71.118  0.00  0.00    +0.000 A 
ATOM      6  C   UNL     1      -5.409  19.523  71.107  0.00  0.00    +0.000 A 
ENDROOT
BRANCH   1   7
ATOM      7  C   UNL     1      -5.254  17.030  70.730  0.00  0.00    +0.000 C 
ATOM      8  O   UNL     1      -4.802  16.222  71.534  0.00  0.00    +0.000 OA
BRANCH   7   9
ATOM      9  O   UNL     1      -6.248  16.785  69.837  0.00  0.00    +0.000 OA
BRANCH   9  11
ATOM     10  C   UNL     1      -5.179  15.440  68.125  0.00  0.00    +0.000 C 
ATOM     11  C   UNL     1      -6.188  15.463  69.260  0.00  0.00    +0.000 C 
ENDBRANCH   9  11
ENDBRANCH   7   9
ENDBRANCH   1   7
TORSDOF 3
ENDMDL
MODEL 4
REMARK VINA RESULT:      -3.8      8.267      9.082
REMARK  Name = ethyl_benzoate
REMARK  4 active torsions:
REMARK  status: ('A' for Active; 'I' for Inactive)
REMARK    1  A    between atoms: C_1  and  C_2
REMARK    2  A    between atoms: C_2  and  O_3
REMARK    3  A    between atoms: O_3  and  C_4
REMARK    4  A    between atoms: C_4  and  C_6
REMARK                            x       y       z     vdW  Elec       q    Type
REMARK                         _______ _______ _______ _____ _____    ______ ____
ROOT
ATOM      1  C   UNL     1      -5.155  16.333  69.653  0.00  0.00    +0.000 A 
ATOM      2  C   UNL     1      -4.429  15.630  68.680  0.00  0.00    +0.000 A 
ATOM      3  C   UNL     1      -5.063  14.695  67.858  0.00  0.00    +0.000 A 
ATOM      4  C   UNL     1      -6.415  14.410  68.043  0.00  0.00    +0.000 A 
ATOM      5  C   UNL     1      -7.140  15.091  69.021  0.00  0.00    +0.000 A 
ATOM      6  C   UNL     1      -6.517  16.058  69.823  0.00  0.00    +0.000 A 
ENDROOT
BRANCH   1   7
ATOM      7  C   UNL     1      -4.478  17.451  70.359  0.00  0.00    +0.000 C 
ATOM      8  O   UNL     1      -3.354  17.826  70.044  0.00  0.00    +0.000 OA
BRANCH   7   9
ATOM      9  O   UNL     1      -5.224  17.958  71.376  0.00  0.00    +0.000 OA
BRANCH   9  11
ATOM     10  C   UNL     1      -6.216  20.101  70.823  0.00  0.00    +0.000 C 
ATOM     11  C   UNL     1      -5.082  19.385  71.537  0.00  0.00    +0.000 C 
ENDBRANCH   9  11
ENDBRANCH   7   9
ENDBRANCH   1   7
TORSDOF 3
ENDMDL
MODEL 5
REMARK VINA RESULT:      -3.7      8.223      8.937
REMARK  Name = ethyl_benzoate
REMARK  4 active torsions:
REMARK  status: ('A' for Active; 'I' for Inactive)
REMARK    1  A    between atoms: C_1  and  C_2
REMARK    2  A    between atoms: C_2  and  O_3
REMARK    3  A    between atoms: O_3  and  C_4
REMARK    4  A    between atoms: C_4  and  C_6
REMARK                            x       y       z     vdW  Elec       q    Type
REMARK                         _______ _______ _______ _____ _____    ______ ____
ROOT
ATOM      1  C   UNL     1      -4.896  17.903  70.388  0.00  0.00    +0.000 A 
ATOM      2  C   UNL     1      -3.603  17.717  69.875  0.00  0.00    +0.000 A 
ATOM      3  C   UNL     1      -3.309  16.607  69.079  0.00  0.00    +0.000 A 
ATOM      4  C   UNL     1      -4.286  15.643  68.841  0.00  0.00    +0.000 A 
ATOM      5  C   UNL     1      -5.569  15.810  69.364  0.00  0.00    +0.000 A 
ATOM      6  C   UNL     1      -5.880  16.942  70.132  0.00  0.00    +0.000 A 
ENDROOT
BRANCH   1   7
ATOM      7  C   UNL     1      -5.203  19.193  71.058  0.00  0.00    +0.000 C 
ATOM      8  O   UNL     1      -6.225  19.823  70.805  0.00  0.00    +0.000 OA
BRANCH   7   9
ATOM      9  O   UNL     1      -4.231  19.580  71.924  0.00  0.00    +0.000 OA
BRANCH   9  11
ATOM     10  C   UNL     1      -3.028  21.226  70.610  0.00  0.00    +0.000 C 
ATOM     11  C   UNL     1      -3.901  20.981  71.829  0.00  0.00    +0.000 C 
ENDBRANCH   9  11
ENDBRANCH   7   9
ENDBRANCH   1   7
TORSDOF 3
ENDMDL
MODEL 6
REMARK VINA RESULT:      -3.7     16.652     17.832
REMARK  Name = ethyl_benzoate
REMARK  4 active torsions:
REMARK  status: ('A' for Active; 'I' for Inactive)
REMARK    1  A    between atoms: C_1  and  C_2
REMARK    2  A    between atoms: C_2  and  O_3
REMARK    3  A    between atoms: O_3  and  C_4
REMARK    4  A    between atoms: C_4  and  C_6
REMARK                            x       y       z     vdW  Elec       q    Type
REMARK                         _______ _______ _______ _____ _____    ______ ____
ROOT
ATOM      1  C   UNL     1      -6.649   9.736  76.899  0.00  0.00    +0.000 A 
ATOM      2  C   UNL     1      -6.917  11.036  76.443  0.00  0.00    +0.000 A 
ATOM      3  C   UNL     1      -6.247  12.133  76.992  0.00  0.00    +0.000 A 
ATOM      4  C   UNL     1      -5.348  11.945  78.040  0.00  0.00    +0.000 A 
ATOM      5  C   UNL     1      -5.090  10.658  78.512  0.00  0.00    +0.000 A 
ATOM      6  C   UNL     1      -5.732   9.550  77.939  0.00  0.00    +0.000 A 
ENDROOT
BRANCH   1   7
ATOM      7  C   UNL     1      -7.239   8.597  76.150  0.00  0.00    +0.000 C 
ATOM      8  O   UNL     1      -7.408   7.500  76.672  0.00  0.00    +0.000 OA
BRANCH   7   9
ATOM      9  O   UNL     1      -7.523   8.909  74.858  0.00  0.00    +0.000 OA
BRANCH   9  11
ATOM     10  C   UNL     1      -8.197   8.009  72.708  0.00  0.00    +0.000 C 
ATOM     11  C   UNL     1      -8.391   7.952  74.214  0.00  0.00    +0.000 C 
ENDBRANCH   9  11
ENDBRANCH   7   9
ENDBRANCH   1   7
TORSDOF 3
ENDMDL
MODEL 7
REMARK VINA RESULT:      -3.6      2.452      3.585
REMARK  Name = ethyl_benzoate
REMARK  4 active torsions:
REMARK  status: ('A' for Active; 'I' for Inactive)
REMARK    1  A    between atoms: C_1  and  C_2
REMARK    2  A    between atoms: C_2  and  O_3
REMARK    3  A    between atoms: O_3  and  C_4
REMARK    4  A    between atoms: C_4  and  C_6
REMARK                            x       y       z     vdW  Elec       q    Type
REMARK                         _______ _______ _______ _____ _____    ______ ____
ROOT
ATOM      1  C   UNL     1      -5.068  19.457  61.209  0.00  0.00    +0.000 A 
ATOM      2  C   UNL     1      -4.977  18.882  62.486  0.00  0.00    +0.000 A 
ATOM      3  C   UNL     1      -5.514  19.535  63.599  0.00  0.00    +0.000 A 
ATOM      4  C   UNL     1      -6.093  20.795  63.453  0.00  0.00    +0.000 A 
ATOM      5  C   UNL     1      -6.171  21.382  62.190  0.00  0.00    +0.000 A 
ATOM      6  C   UNL     1      -5.666  20.713  61.064  0.00  0.00    +0.000 A 
ENDROOT
BRANCH   1   7
ATOM      7  C   UNL     1      -4.660  18.634  60.042  0.00  0.00    +0.000 C 
ATOM      8  O   UNL     1      -4.335  19.145  58.975  0.00  0.00    +0.000 OA
BRANCH   7   9
ATOM      9  O   UNL     1      -4.724  17.300  60.292  0.00  0.00    +0.000 OA
BRANCH   9  11
ATOM     10  C   UNL     1      -5.219  15.052  59.524  0.00  0.00    +0.000 C 
ATOM     11  C   UNL     1      -5.091  16.516  59.137  0.00  0.00    +0.000 C 
ENDBRANCH   9  11
ENDBRANCH   7   9
ENDBRANCH   1   7
TORSDOF 3
ENDMDL
MODEL 8
REMARK VINA RESULT:      -3.5     15.883     17.538
REMARK  Name = ethyl_benzoate
REMARK  4 active torsions:
REMARK  status: ('A' for Active; 'I' for Inactive)
REMARK    1  A    between atoms: C_1  and  C_2
REMARK    2  A    between atoms: C_2  and  O_3
REMARK    3  A    between atoms: O_3  and  C_4
REMARK    4  A    between atoms: C_4  and  C_6
REMARK                            x       y       z     vdW  Elec       q    Type
REMARK                         _______ _______ _______ _____ _____    ______ ____
ROOT
ATOM      1  C   UNL     1      -6.186  10.438  76.981  0.00  0.00    +0.000 A 
ATOM      2  C   UNL     1      -6.941   9.489  76.275  0.00  0.00    +0.000 A 
ATOM      3  C   UNL     1      -7.080   8.186  76.763  0.00  0.00    +0.000 A 
ATOM      4  C   UNL     1      -6.415   7.805  77.927  0.00  0.00    +0.000 A 
ATOM      5  C   UNL     1      -5.646   8.738  78.624  0.00  0.00    +0.000 A 
ATOM      6  C   UNL     1      -5.535  10.057  78.159  0.00  0.00    +0.000 A 
ENDROOT
BRANCH   1   7
ATOM      7  C   UNL     1      -6.236  11.850  76.524  0.00  0.00    +0.000 C 
ATOM      8  O   UNL     1      -7.297  12.407  76.264  0.00  0.00    +0.000 OA
BRANCH   7   9
ATOM      9  O   UNL     1      -5.002  12.408  76.407  0.00  0.00    +0.000 OA
BRANCH   9  11
ATOM     10  C   UNL     1      -4.513  13.073  74.126  0.00  0.00    +0.000 C 
ATOM     11  C   UNL     1      -4.309  12.020  75.202  0.00  0.00    +0.000 C 
ENDBRANCH   9  11
ENDBRANCH   7   9
ENDBRANCH   1   7
TORSDOF 3
ENDMDL
MODEL 9
REMARK VINA RESULT:      -3.5     16.810     17.770
REMARK  Name = ethyl_benzoate
REMARK  4 active torsions:
REMARK  status: ('A' for Active; 'I' for Inactive)
REMARK    1  A    between atoms: C_1  and  C_2
REMARK    2  A    between atoms: C_2  and  O_3
REMARK    3  A    between atoms: O_3  and  C_4
REMARK    4  A    between atoms: C_4  and  C_6
REMARK                            x       y       z     vdW  Elec       q    Type
REMARK                         _______ _______ _______ _____ _____    ______ ____
ROOT
ATOM      1  C   UNL     1      -6.343  10.026  76.783  0.00  0.00    +0.000 A 
ATOM      2  C   UNL     1      -5.501   9.732  77.867  0.00  0.00    +0.000 A 
ATOM      3  C   UNL     1      -4.934  10.761  78.625  0.00  0.00    +0.000 A 
ATOM      4  C   UNL     1      -5.155  12.090  78.269  0.00  0.00    +0.000 A 
ATOM      5  C   UNL     1      -5.975  12.390  77.181  0.00  0.00    +0.000 A 
ATOM      6  C   UNL     1      -6.577  11.362  76.440  0.00  0.00    +0.000 A 
ENDROOT
BRANCH   1   7
ATOM      7  C   UNL     1      -7.072   8.903  76.140  0.00  0.00    +0.000 C 
ATOM      8  O   UNL     1      -7.492   7.951  76.789  0.00  0.00    +0.000 OA
BRANCH   7   9
ATOM      9  O   UNL     1      -7.177   9.049  74.793  0.00  0.00    +0.000 OA
BRANCH   9  11
ATOM     10  C   UNL     1      -8.579   7.955  73.143  0.00  0.00    +0.000 C 
ATOM     11  C   UNL     1      -7.406   7.806  74.097  0.00  0.00    +0.000 C 
ENDBRANCH   9  11
ENDBRANCH   7   9
ENDBRANCH   1   7
TORSDOF 3
ENDMDL
