MODEL 1
REMARK VINA RESULT:      -3.4      0.000      0.000
REMARK  Name = alanine
REMARK  4 active torsions:
REMARK  status: ('A' for Active; 'I' for Inactive)
REMARK    1  A    between atoms: CB_1  and  CA_2
REMARK    2  A    between atoms: CA_2  and  C_3
REMARK    3  A    between atoms: CA_2  and  N_6
REMARK    4  A    between atoms: C_3  and  OXT_5
REMARK                            x       y       z     vdW  Elec       q    Type
REMARK                         _______ _______ _______ _____ _____    ______ ____
ROOT
ATOM      1  CB  ALA A   1      -9.122   4.686  65.710  0.00  0.00    +0.000 C 
ATOM      2  CA  ALA A   1     -10.541   4.827  66.242  0.00  0.00    +0.000 C 
ENDROOT
BRANCH   2   3
ATOM      3  N   ALA A   1     -11.477   4.501  65.144  0.00  0.00    +0.000 NA
ATOM      4  H1  ALA A   1     -11.090   3.704  64.628  0.00  0.00    +0.000 HD
ATOM      5  H2  ALA A   1     -11.435   5.258  64.456  0.00  0.00    +0.000 HD
ENDBRANCH   2   3
BRANCH   2   6
ATOM      6  C   ALA A   1     -10.810   6.253  66.762  0.00  0.00    +0.000 C 
ATOM      7  O   ALA A   1     -10.424   7.266  66.190  0.00  0.00    +0.000 OA
BRANCH   6   8
ATOM      8  OXT ALA A   1     -11.542   6.318  67.897  0.00  0.00    +0.000 OA
ATOM      9  HXT ALA A   1     -11.843   7.208  68.159  0.00  0.00    +0.000 HD
ENDBRANCH   6   8
ENDBRANCH   2   6
TORSDOF 3
ENDMDL
MODEL 2
REMARK VINA RESULT:      -3.4     16.128     16.662
REMARK  Name = alanine
REMARK  4 active torsions:
REMARK  status: ('A' for Active; 'I' for Inactive)
REMARK    1  A    between atoms: CB_1  and  CA_2
REMARK    2  A    between atoms: CA_2  and  C_3
REMARK    3  A    between atoms: CA_2  and  N_6
REMARK    4  A    between atoms: C_3  and  OXT_5
REMARK                            x       y       z     vdW  Elec       q    Type
REMARK                         _______ _______ _______ _____ _____    ______ ____
ROOT
ATOM      1  CB  ALA A   1      -4.983  18.495  70.797  0.00  0.00    +0.000 C 
ATOM      2  CA  ALA A   1      -5.441  19.721  71.574  0.00  0.00    +0.000 C 
ENDROOT
BRANCH   2   3
ATOM      3  N   ALA A   1      -6.435  20.442  70.748  0.00  0.00    +0.000 NA
ATOM      4  H1  ALA A   1      -6.832  19.774  70.080  0.00  0.00    +0.000 HD
ATOM      5  H2  ALA A   1      -5.930  21.096  70.143  0.00  0.00    +0.000 HD
ENDBRANCH   2   3
BRANCH   2   6
ATOM      6  C   ALA A   1      -4.258  20.650  71.911  0.00  0.00    +0.000 C 
ATOM      7  O   ALA A   1      -3.267  20.284  72.534  0.00  0.00    +0.000 OA
BRANCH   6   8
ATOM      8  OXT ALA A   1      -4.370  21.911  71.438  0.00  0.00    +0.000 OA
ATOM      9  HXT ALA A   1      -4.845  22.540  72.012  0.00  0.00    +0.000 HD
ENDBRANCH   6   8
ENDBRANCH   2   6
TORSDOF 3
ENDMDL
MODEL 3
REMARK VINA RESULT:      -3.2     16.593     17.086
REMARK  Name = alanine
REMARK  4 active torsions:
REMARK  status: ('A' for Active; 'I' for Inactive)
REMARK    1  A    between atoms: CB_1  and  CA_2
REMARK    2  A    between atoms: CA_2  and  C_3
REMARK    3  A    between atoms: CA_2  and  N_6
REMARK    4  A    between atoms: C_3  and  OXT_5
REMARK                            x       y       z     vdW  Elec       q    Type
REMARK                         _______ _______ _______ _____ _____    ______ ____
ROOT
ATOM      1  CB  ALA A   1      -3.086  21.108  70.449  0.00  0.00    +0.000 C 
ATOM      2  CA  ALA A   1      -4.466  21.460  70.985  0.00  0.00    +0.000 C 
ENDROOT
BRANCH   2   3
ATOM      3  N   ALA A   1      -4.291  22.162  72.277  0.00  0.00    +0.000 NA
ATOM      4  H1  ALA A   1      -4.169  23.160  72.078  0.00  0.00    +0.000 HD
ATOM      5  H2  ALA A   1      -3.381  21.894  72.662  0.00  0.00    +0.000 HD
ENDBRANCH   2   3
BRANCH   2   6
ATOM      6  C   ALA A   1      -5.335  20.201  71.179  0.00  0.00    +0.000 C 
ATOM      7  O   ALA A   1      -6.415  20.033  70.625  0.00  0.00    +0.000 OA
BRANCH   6   8
ATOM      8  OXT ALA A   1      -4.802  19.261  71.991  0.00  0.00    +0.000 OA
ATOM      9  HXT ALA A   1      -5.441  18.690  72.458  0.00  0.00    +0.000 HD
ENDBRANCH   6   8
ENDBRANCH   2   6
TORSDOF 3
ENDMDL
MODEL 4
REMARK VINA RESULT:      -3.2     16.347     16.662
REMARK  Name = alanine
REMARK  4 active torsions:
REMARK  status: ('A' for Active; 'I' for Inactive)
REMARK    1  A    between atoms: CB_1  and  CA_2
REMARK    2  A    between atoms: CA_2  and  C_3
REMARK    3  A    between atoms: CA_2  and  N_6
REMARK    4  A    between atoms: C_3  and  OXT_5
REMARK                            x       y       z     vdW  Elec       q    Type
REMARK                         _______ _______ _______ _____ _____    ______ ____
ROOT
ATOM      1  CB  ALA A   1      -5.927  20.622  63.414  0.00  0.00    +0.000 C 
ATOM      2  CA  ALA A   1      -5.949  21.337  62.070  0.00  0.00    +0.000 C 
ENDROOT
BRANCH   2   3
ATOM      3  N   ALA A   1      -7.114  22.249  62.055  0.00  0.00    +0.000 NA
ATOM      4  H1  ALA A   1      -7.741  21.970  62.816  0.00  0.00    +0.000 HD
ATOM      5  H2  ALA A   1      -7.668  22.042  61.218  0.00  0.00    +0.000 HD
ENDBRANCH   2   3
BRANCH   2   6
ATOM      6  C   ALA A   1      -6.044  20.336  60.901  0.00  0.00    +0.000 C 
ATOM      7  O   ALA A   1      -5.220  19.451  60.699  0.00  0.00    +0.000 OA
BRANCH   6   8
ATOM      8  OXT ALA A   1      -7.135  20.478  60.116  0.00  0.00    +0.000 OA
ATOM      9  HXT ALA A   1      -7.011  21.008  59.306  0.00  0.00    +0.000 HD
ENDBRANCH   6   8
ENDBRANCH   2   6
TORSDOF 3
ENDMDL
MODEL 5
REMARK VINA RESULT:      -3.0     16.380     16.780
REMARK  Name = alanine
REMARK  4 active torsions:
REMARK  status: ('A' for Active; 'I' for Inactive)
REMARK    1  A    between atoms: CB_1  and  CA_2
REMARK    2  A    between atoms: CA_2  and  C_3
REMARK    3  A    between atoms: CA_2  and  N_6
REMARK    4  A    between atoms: C_3  and  OXT_5
REMARK                            x       y       z     vdW  Elec       q    Type
REMARK                         _______ _______ _______ _____ _____    ______ ____
ROOT
ATOM      1  CB  ALA A   1      -4.770  20.420  63.757  0.00  0.00    +0.000 C 
ATOM      2  CA  ALA A   1      -5.915  20.376  62.755  0.00  0.00    +0.000 C 
ENDROOT
BRANCH   2   3
ATOM      3  N   ALA A   1      -5.562  19.402  61.698  0.00  0.00    +0.000 NA
ATOM      4  H1  ALA A   1      -6.137  19.610  60.875  0.00  0.00    +0.000 HD
ATOM      5  H2  ALA A   1      -5.905  18.482  61.987  0.00  0.00    +0.000 HD
ENDBRANCH   2   3
BRANCH   2   6
ATOM      6  C   ALA A   1      -6.175  21.762  62.133  0.00  0.00    +0.000 C 
ATOM      7  O   ALA A   1      -7.253  22.342  62.200  0.00  0.00    +0.000 OA
BRANCH   6   8
ATOM      8  OXT ALA A   1      -5.107  22.324  61.526  0.00  0.00    +0.000 OA
ATOM      9  HXT ALA A   1      -4.394  21.711  61.264  0.00  0.00    +0.000 HD
ENDBRANCH   6   8
ENDBRANCH   2   6
TORSDOF 3
ENDMDL
MODEL 6
REMARK VINA RESULT:      -3.0      8.810      9.065
REMARK  Name = alanine
REMARK  4 active torsions:
REMARK  status: ('A' for Active; 'I' for Inactive)
REMARK    1  A    between atoms: CB_1  and  CA_2
REMARK    2  A    between atoms: CA_2  and  C_3
REMARK    3  A    between atoms: CA_2  and  N_6
REMARK    4  A    between atoms: C_3  and  OXT_5
REMARK                            x       y       z     vdW  Elec       q    Type
REMARK                         _______ _______ _______ _____ _____    ______ ____
ROOT
ATOM      1  CB  ALA A   1      -7.127   5.718  74.870  0.00  0.00    +0.000 C 
ATOM      2  CA  ALA A   1      -7.875   6.915  75.440  0.00  0.00    +0.000 C 
ENDROOT
BRANCH   2   3
ATOM      3  N   ALA A   1      -9.074   6.412  76.148  0.00  0.00    +0.000 NA
ATOM      4  H1  ALA A   1      -9.895   6.862  75.731  0.00  0.00    +0.000 HD
ATOM      5  H2  ALA A   1      -9.064   6.794  77.098  0.00  0.00    +0.000 HD
ENDBRANCH   2   3
BRANCH   2   6
ATOM      6  C   ALA A   1      -8.289   7.902  74.331  0.00  0.00    +0.000 C 
ATOM      7  O   ALA A   1      -7.517   8.702  73.814  0.00  0.00    +0.000 OA
BRANCH   6   8
ATOM      8  OXT ALA A   1      -9.577   7.805  73.933  0.00  0.00    +0.000 OA
ATOM      9  HXT ALA A   1      -9.981   8.625  73.593  0.00  0.00    +0.000 HD
ENDBRANCH   6   8
ENDBRANCH   2   6
TORSDOF 3
ENDMDL
MODEL 7
REMARK VINA RESULT:      -3.0     16.346     16.862
REMARK  Name = alanine
REMARK  4 active torsions:
REMARK  status: ('A' for Active; 'I' for Inactive)
REMARK    1  A    between atoms: CB_1  and  CA_2
REMARK    2  A    between atoms: CA_2  and  C_3
REMARK    3  A    between atoms: CA_2  and  N_6
REMARK    4  A    between atoms: C_3  and  OXT_5
REMARK                            x       y       z     vdW  Elec       q    Type
REMARK                         _______ _______ _______ _____ _____    ______ ____
ROOT
ATOM      1  CB  ALA A   1      -5.345  18.921  71.153  0.00  0.00    +0.000 C 
ATOM      2  CA  ALA A   1      -4.173  19.815  70.773  0.00  0.00    +0.000 C 
ENDROOT
BRANCH   2   3
ATOM      3  N   ALA A   1      -3.029  18.945  70.418  0.00  0.00    +0.000 NA
ATOM      4  H1  ALA A   1      -2.186  19.349  70.837  0.00  0.00    +0.000 HD
ATOM      5  H2  ALA A   1      -2.855  19.046  69.414  0.00  0.00    +0.000 HD
ENDBRANCH   2   3
BRANCH   2   6
ATOM      6  C   ALA A   1      -3.783  20.756  71.931  0.00  0.00    +0.000 C 
ATOM      7  O   ALA A   1      -4.307  21.848  72.120  0.00  0.00    +0.000 OA
BRANCH   6   8
ATOM      8  OXT ALA A   1      -2.830  20.276  72.760  0.00  0.00    +0.000 OA
ATOM      9  HXT ALA A   1      -2.053  20.851  72.894  0.00  0.00    +0.000 HD
ENDBRANCH   6   8
ENDBRANCH   2   6
TORSDOF 3
ENDMDL
MODEL 8
REMARK VINA RESULT:      -2.9      9.483      9.808
REMARK  Name = alanine
REMARK  4 active torsions:
REMARK  status: ('A' for Active; 'I' for Inactive)
REMARK    1  A    between atoms: CB_1  and  CA_2
REMARK    2  A    between atoms: CA_2  and  C_3
REMARK    3  A    between atoms: CA_2  and  N_6
REMARK    4  A    between atoms: C_3  and  OXT_5
REMARK                            x       y       z     vdW  Elec       q    Type
REMARK                         _______ _______ _______ _____ _____    ______ ____
ROOT
ATOM      1  CB  ALA A   1      -6.050  13.825  70.072  0.00  0.00    +0.000 C 
ATOM      2  CA  ALA A   1      -6.840  14.648  69.064  0.00  0.00    +0.000 C 
ENDROOT
BRANCH   2   3
ATOM      3  N   ALA A   1      -8.237  14.741  69.542  0.00  0.00    +0.000 NA
ATOM      4  H1  ALA A   1      -8.367  14.033  70.272  0.00  0.00    +0.000 HD
ATOM      5  H2  ALA A   1      -8.851  14.409  68.793  0.00  0.00    +0.000 HD
ENDBRANCH   2   3
BRANCH   2   6
ATOM      6  C   ALA A   1      -6.801  14.011  67.661  0.00  0.00    +0.000 C 
ATOM      7  O   ALA A   1      -5.857  13.349  67.244  0.00  0.00    +0.000 OA
BRANCH   6   8
ATOM      8  OXT ALA A   1      -7.911  14.205  66.915  0.00  0.00    +0.000 OA
ATOM      9  HXT ALA A   1      -7.813  14.051  65.957  0.00  0.00    +0.000 HD
ENDBRANCH   6   8
ENDBRANCH   2   6
TORSDOF 3
ENDMDL
MODEL 9
REMARK VINA RESULT:      -2.8      9.579     10.095
REMARK  Name = alanine
REMARK  4 active torsions:
REMARK  status: ('A' for Active; 'I' for Inactive)
REMARK    1  A    between atoms: CB_1  and  CA_2
REMARK    2  A    between atoms: CA_2  and  C_3
REMARK    3  A    between atoms: CA_2  and  N_6
REMARK    4  A    between atoms: C_3  and  OXT_5
REMARK                            x       y       z     vdW  Elec       q    Type
REMARK                         _______ _______ _______ _____ _____    ______ ____
ROOT
ATOM      1  CB  ALA A   1      -7.292   8.669  75.489  0.00  0.00    +0.000 C 
ATOM      2  CA  ALA A   1      -7.911   7.334  75.100  0.00  0.00    +0.000 C 
ENDROOT
BRANCH   2   3
ATOM      3  N   ALA A   1      -9.116   7.608  74.285  0.00  0.00    +0.000 NA
ATOM      4  H1  ALA A   1      -9.626   8.379  74.728  0.00  0.00    +0.000 HD
ATOM      5  H2  ALA A   1      -9.759   6.818  74.395  0.00  0.00    +0.000 HD
ENDBRANCH   2   3
BRANCH   2   6
ATOM      6  C   ALA A   1      -8.289   6.504  76.343  0.00  0.00    +0.000 C 
ATOM      7  O   ALA A   1      -7.478   6.144  77.188  0.00  0.00    +0.000 OA
BRANCH   6   8
ATOM      8  OXT ALA A   1      -9.606   6.222  76.461  0.00  0.00    +0.000 OA
ATOM      9  HXT ALA A   1      -9.826   5.292  76.657  0.00  0.00    +0.000 HD
ENDBRANCH   6   8
ENDBRANCH   2   6
TORSDOF 3
ENDMDL
