MODEL 1
REMARK VINA RESULT:      -3.7      0.000      0.000
REMARK  Name = benzaldehyde
REMARK  1 active torsions:
REMARK  status: ('A' for Active; 'I' for Inactive)
REMARK    1  A    between atoms: C_4  and  C_7
REMARK                            x       y       z     vdW  Elec       q    Type
REMARK                         _______ _______ _______ _____ _____    ______ ____
ROOT
ATOM      1  C   UNL     1      -3.227  19.179  64.379  0.00  0.00    +0.000 A 
ATOM      2  C   UNL     1      -3.189  20.575  64.330  0.00  0.00    +0.000 A 
ATOM      3  C   UNL     1      -4.318  21.291  63.929  0.00  0.00    +0.000 A 
ATOM      4  C   UNL     1      -5.459  20.601  63.508  0.00  0.00    +0.000 A 
ATOM      5  C   UNL     1      -5.500  19.205  63.561  0.00  0.00    +0.000 A 
ATOM      6  C   UNL     1      -4.385  18.496  64.007  0.00  0.00    +0.000 A 
ENDROOT
BRANCH   4   7
ATOM      7  C   UNL     1      -6.597  21.355  62.947  0.00  0.00    +0.000 C 
ATOM      8  O   UNL     1      -6.451  22.203  62.071  0.00  0.00    +0.000 OA
ENDBRANCH   4   7
TORSDOF 1
ENDMDL
MODEL 2
REMARK VINA RESULT:      -3.5      2.547      3.515
REMARK  Name = benzaldehyde
REMARK  1 active torsions:
REMARK  status: ('A' for Active; 'I' for Inactive)
REMARK    1  A    between atoms: C_4  and  C_7
REMARK                            x       y       z     vdW  Elec       q    Type
REMARK                         _______ _______ _______ _____ _____    ______ ____
ROOT
ATOM      1  C   UNL     1      -5.182  21.258  63.626  0.00  0.00    +0.000 A 
ATOM      2  C   UNL     1      -3.856  21.214  64.064  0.00  0.00    +0.000 A 
ATOM      3  C   UNL     1      -3.224  19.985  64.259  0.00  0.00    +0.000 A 
ATOM      4  C   UNL     1      -3.949  18.802  64.086  0.00  0.00    +0.000 A 
ATOM      5  C   UNL     1      -5.275  18.844  63.643  0.00  0.00    +0.000 A 
ATOM      6  C   UNL     1      -5.887  20.074  63.405  0.00  0.00    +0.000 A 
ENDROOT
BRANCH   4   7
ATOM      7  C   UNL     1      -3.325  17.511  64.434  0.00  0.00    +0.000 C 
ATOM      8  O   UNL     1      -3.705  16.837  65.388  0.00  0.00    +0.000 OA
ENDBRANCH   4   7
TORSDOF 1
ENDMDL
MODEL 3
REMARK VINA RESULT:      -3.4      7.263      7.576
REMARK  Name = benzaldehyde
REMARK  1 active torsions:
REMARK  status: ('A' for Active; 'I' for Inactive)
REMARK    1  A    between atoms: C_4  and  C_7
REMARK                            x       y       z     vdW  Elec       q    Type
REMARK                         _______ _______ _______ _____ _____    ______ ____
ROOT
ATOM      1  C   UNL     1      -4.094  17.243  69.959  0.00  0.00    +0.000 A 
ATOM      2  C   UNL     1      -2.995  18.070  69.717  0.00  0.00    +0.000 A 
ATOM      3  C   UNL     1      -2.993  19.385  70.187  0.00  0.00    +0.000 A 
ATOM      4  C   UNL     1      -4.126  19.888  70.833  0.00  0.00    +0.000 A 
ATOM      5  C   UNL     1      -5.225  19.059  71.080  0.00  0.00    +0.000 A 
ATOM      6  C   UNL     1      -5.203  17.733  70.649  0.00  0.00    +0.000 A 
ENDROOT
BRANCH   4   7
ATOM      7  C   UNL     1      -4.179  21.317  71.198  0.00  0.00    +0.000 C 
ATOM      8  O   UNL     1      -3.853  21.719  72.311  0.00  0.00    +0.000 OA
ENDBRANCH   4   7
TORSDOF 1
ENDMDL
MODEL 4
REMARK VINA RESULT:      -3.2      2.377      3.280
REMARK  Name = benzaldehyde
REMARK  1 active torsions:
REMARK  status: ('A' for Active; 'I' for Inactive)
REMARK    1  A    between atoms: C_4  and  C_7
REMARK                            x       y       z     vdW  Elec       q    Type
REMARK                         _______ _______ _______ _____ _____    ______ ____
ROOT
ATOM      1  C   UNL     1      -5.819  20.373  63.693  0.00  0.00    +0.000 A 
ATOM      2  C   UNL     1      -5.176  19.218  63.244  0.00  0.00    +0.000 A 
ATOM      3  C   UNL     1      -4.996  19.003  61.876  0.00  0.00    +0.000 A 
ATOM      4  C   UNL     1      -5.530  19.914  60.960  0.00  0.00    +0.000 A 
ATOM      5  C   UNL     1      -6.171  21.074  61.408  0.00  0.00    +0.000 A 
ATOM      6  C   UNL     1      -6.306  21.306  62.777  0.00  0.00    +0.000 A 
ENDROOT
BRANCH   4   7
ATOM      7  C   UNL     1      -5.469  19.612  59.517  0.00  0.00    +0.000 C 
ATOM      8  O   UNL     1      -6.291  20.057  58.721  0.00  0.00    +0.000 OA
ENDBRANCH   4   7
TORSDOF 1
ENDMDL
MODEL 5
REMARK VINA RESULT:      -3.2     16.355     17.256
REMARK  Name = benzaldehyde
REMARK  1 active torsions:
REMARK  status: ('A' for Active; 'I' for Inactive)
REMARK    1  A    between atoms: C_4  and  C_7
REMARK                            x       y       z     vdW  Elec       q    Type
REMARK                         _______ _______ _______ _____ _____    ______ ____
ROOT
ATOM      1  C   UNL     1      -6.193   7.966  77.894  0.00  0.00    +0.000 A 
ATOM      2  C   UNL     1      -5.412   8.891  78.591  0.00  0.00    +0.000 A 
ATOM      3  C   UNL     1      -5.496  10.250  78.283  0.00  0.00    +0.000 A 
ATOM      4  C   UNL     1      -6.309  10.668  77.226  0.00  0.00    +0.000 A 
ATOM      5  C   UNL     1      -7.096   9.744  76.531  0.00  0.00    +0.000 A 
ATOM      6  C   UNL     1      -7.043   8.393  76.874  0.00  0.00    +0.000 A 
ENDROOT
BRANCH   4   7
ATOM      7  C   UNL     1      -6.285  12.083  76.807  0.00  0.00    +0.000 C 
ATOM      8  O   UNL     1      -7.162  12.569  76.097  0.00  0.00    +0.000 OA
ENDBRANCH   4   7
TORSDOF 1
ENDMDL
MODEL 6
REMARK VINA RESULT:      -3.1      2.476      3.956
REMARK  Name = benzaldehyde
REMARK  1 active torsions:
REMARK  status: ('A' for Active; 'I' for Inactive)
REMARK    1  A    between atoms: C_4  and  C_7
REMARK                            x       y       z     vdW  Elec       q    Type
REMARK                         _______ _______ _______ _____ _____    ______ ____
ROOT
ATOM      1  C   UNL     1      -5.583  20.668  63.505  0.00  0.00    +0.000 A 
ATOM      2  C   UNL     1      -5.632  19.272  63.528  0.00  0.00    +0.000 A 
ATOM      3  C   UNL     1      -4.518  18.540  63.945  0.00  0.00    +0.000 A 
ATOM      4  C   UNL     1      -3.334  19.210  64.265  0.00  0.00    +0.000 A 
ATOM      5  C   UNL     1      -3.285  20.608  64.247  0.00  0.00    +0.000 A 
ATOM      6  C   UNL     1      -4.415  21.335  63.875  0.00  0.00    +0.000 A 
ENDROOT
BRANCH   4   7
ATOM      7  C   UNL     1      -2.117  18.431  64.563  0.00  0.00    +0.000 C 
ATOM      8  O   UNL     1      -1.681  17.580  63.792  0.00  0.00    +0.000 OA
ENDBRANCH   4   7
TORSDOF 1
ENDMDL
MODEL 7
REMARK VINA RESULT:      -3.1      2.088      3.011
REMARK  Name = benzaldehyde
REMARK  1 active torsions:
REMARK  status: ('A' for Active; 'I' for Inactive)
REMARK    1  A    between atoms: C_4  and  C_7
REMARK                            x       y       z     vdW  Elec       q    Type
REMARK                         _______ _______ _______ _____ _____    ______ ____
ROOT
ATOM      1  C   UNL     1      -5.214  18.909  63.382  0.00  0.00    +0.000 A 
ATOM      2  C   UNL     1      -3.958  18.750  63.973  0.00  0.00    +0.000 A 
ATOM      3  C   UNL     1      -3.209  19.871  64.336  0.00  0.00    +0.000 A 
ATOM      4  C   UNL     1      -3.692  21.149  64.037  0.00  0.00    +0.000 A 
ATOM      5  C   UNL     1      -4.951  21.309  63.451  0.00  0.00    +0.000 A 
ATOM      6  C   UNL     1      -5.715  20.186  63.133  0.00  0.00    +0.000 A 
ENDROOT
BRANCH   4   7
ATOM      7  C   UNL     1      -2.837  22.325  64.288  0.00  0.00    +0.000 C 
ATOM      8  O   UNL     1      -2.063  22.379  65.241  0.00  0.00    +0.000 OA
ENDBRANCH   4   7
TORSDOF 1
ENDMDL
MODEL 8
REMARK VINA RESULT:      -2.9     15.970     16.885
REMARK  Name = benzaldehyde
REMARK  1 active torsions:
REMARK  status: ('A' for Active; 'I' for Inactive)
REMARK    1  A    between atoms: C_4  and  C_7
REMARK                            x       y       z     vdW  Elec       q    Type
REMARK                         _______ _______ _______ _____ _____    ______ ____
ROOT
ATOM      1  C   UNL     1      -5.133  11.894  78.381  0.00  0.00    +0.000 A 
ATOM      2  C   UNL     1      -5.032  10.522  78.625  0.00  0.00    +0.000 A 
ATOM      3  C   UNL     1      -5.696   9.614  77.798  0.00  0.00    +0.000 A 
ATOM      4  C   UNL     1      -6.519  10.090  76.773  0.00  0.00    +0.000 A 
ATOM      5  C   UNL     1      -6.616  11.463  76.524  0.00  0.00    +0.000 A 
ATOM      6  C   UNL     1      -5.914  12.363  77.325  0.00  0.00    +0.000 A 
ENDROOT
BRANCH   4   7
ATOM      7  C   UNL     1      -7.333   9.137  75.994  0.00  0.00    +0.000 C 
ATOM      8  O   UNL     1      -7.262   9.064  74.770  0.00  0.00    +0.000 OA
ENDBRANCH   4   7
TORSDOF 1
ENDMDL
MODEL 9
REMARK VINA RESULT:      -2.9      7.004      7.484
REMARK  Name = benzaldehyde
REMARK  1 active torsions:
REMARK  status: ('A' for Active; 'I' for Inactive)
REMARK    1  A    between atoms: C_4  and  C_7
REMARK                            x       y       z     vdW  Elec       q    Type
REMARK                         _______ _______ _______ _____ _____    ______ ____
ROOT
ATOM      1  C   UNL     1      -4.105  17.130  69.866  0.00  0.00    +0.000 A 
ATOM      2  C   UNL     1      -5.414  16.895  70.292  0.00  0.00    +0.000 A 
ATOM      3  C   UNL     1      -6.200  15.938  69.646  0.00  0.00    +0.000 A 
ATOM      4  C   UNL     1      -5.693  15.274  68.525  0.00  0.00    +0.000 A 
ATOM      5  C   UNL     1      -4.381  15.504  68.100  0.00  0.00    +0.000 A 
ATOM      6  C   UNL     1      -3.585  16.427  68.779  0.00  0.00    +0.000 A 
ENDROOT
BRANCH   4   7
ATOM      7  C   UNL     1      -6.573  14.373  67.756  0.00  0.00    +0.000 C 
ATOM      8  O   UNL     1      -6.157  13.341  67.236  0.00  0.00    +0.000 OA
ENDBRANCH   4   7
TORSDOF 1
ENDMDL
