MODEL 1
REMARK VINA RESULT:      -3.6      0.000      0.000
REMARK  Name = benzene
REMARK  1 active torsions:
REMARK  status: ('A' for Active; 'I' for Inactive)
REMARK    1  A    between atoms: C_1  and  C_2
REMARK                            x       y       z     vdW  Elec       q    Type
REMARK                         _______ _______ _______ _____ _____    ______ ____
ROOT
ATOM      1  C   UNL     1      -6.565  21.400  62.944  0.00  0.00    +0.000 C 
ATOM      2  C   UNL     1      -5.411  20.601  63.469  0.00  0.00    +0.000 A 
ATOM      3  C   UNL     1      -4.236  21.229  63.899  0.00  0.00    +0.000 A 
ATOM      4  C   UNL     1      -3.162  20.472  64.371  0.00  0.00    +0.000 A 
ATOM      5  C   UNL     1      -3.255  19.083  64.420  0.00  0.00    +0.000 A 
ATOM      6  C   UNL     1      -4.423  18.448  64.002  0.00  0.00    +0.000 A 
ATOM      7  C   UNL     1      -5.497  19.204  63.528  0.00  0.00    +0.000 A 
ENDROOT
TORSDOF 0
ENDMDL
MODEL 2
REMARK VINA RESULT:      -3.4      0.878      2.446
REMARK  Name = benzene
REMARK  1 active torsions:
REMARK  status: ('A' for Active; 'I' for Inactive)
REMARK    1  A    between atoms: C_1  and  C_2
REMARK                            x       y       z     vdW  Elec       q    Type
REMARK                         _______ _______ _______ _____ _____    ______ ____
ROOT
ATOM      1  C   UNL     1      -2.830  22.255  64.279  0.00  0.00    +0.000 C 
ATOM      2  C   UNL     1      -3.702  21.054  64.070  0.00  0.00    +0.000 A 
ATOM      3  C   UNL     1      -3.206  19.761  64.269  0.00  0.00    +0.000 A 
ATOM      4  C   UNL     1      -4.024  18.650  64.056  0.00  0.00    +0.000 A 
ATOM      5  C   UNL     1      -5.344  18.823  63.644  0.00  0.00    +0.000 A 
ATOM      6  C   UNL     1      -5.849  20.107  63.450  0.00  0.00    +0.000 A 
ATOM      7  C   UNL     1      -5.032  21.218  63.662  0.00  0.00    +0.000 A 
ENDROOT
TORSDOF 0
ENDMDL
MODEL 3
REMARK VINA RESULT:      -3.4      0.771      2.719
REMARK  Name = benzene
REMARK  1 active torsions:
REMARK  status: ('A' for Active; 'I' for Inactive)
REMARK    1  A    between atoms: C_1  and  C_2
REMARK                            x       y       z     vdW  Elec       q    Type
REMARK                         _______ _______ _______ _____ _____    ______ ____
ROOT
ATOM      1  C   UNL     1      -3.402  17.507  64.428  0.00  0.00    +0.000 C 
ATOM      2  C   UNL     1      -4.008  18.841  64.115  0.00  0.00    +0.000 A 
ATOM      3  C   UNL     1      -3.288  20.024  64.320  0.00  0.00    +0.000 A 
ATOM      4  C   UNL     1      -3.870  21.262  64.039  0.00  0.00    +0.000 A 
ATOM      5  C   UNL     1      -5.174  21.327  63.551  0.00  0.00    +0.000 A 
ATOM      6  C   UNL     1      -5.896  20.154  63.338  0.00  0.00    +0.000 A 
ATOM      7  C   UNL     1      -5.315  18.916  63.619  0.00  0.00    +0.000 A 
ENDROOT
TORSDOF 0
ENDMDL
MODEL 4
REMARK VINA RESULT:      -3.2      1.886      3.316
REMARK  Name = benzene
REMARK  1 active torsions:
REMARK  status: ('A' for Active; 'I' for Inactive)
REMARK    1  A    between atoms: C_1  and  C_2
REMARK                            x       y       z     vdW  Elec       q    Type
REMARK                         _______ _______ _______ _____ _____    ______ ____
ROOT
ATOM      1  C   UNL     1      -4.572  18.453  60.266  0.00  0.00    +0.000 C 
ATOM      2  C   UNL     1      -5.113  19.337  61.350  0.00  0.00    +0.000 A 
ATOM      3  C   UNL     1      -5.021  18.964  62.696  0.00  0.00    +0.000 A 
ATOM      4  C   UNL     1      -5.543  19.788  63.694  0.00  0.00    +0.000 A 
ATOM      5  C   UNL     1      -6.158  20.992  63.356  0.00  0.00    +0.000 A 
ATOM      6  C   UNL     1      -6.248  21.376  62.019  0.00  0.00    +0.000 A 
ATOM      7  C   UNL     1      -5.727  20.551  61.020  0.00  0.00    +0.000 A 
ENDROOT
TORSDOF 0
ENDMDL
MODEL 5
REMARK VINA RESULT:      -3.2      1.381      3.400
REMARK  Name = benzene
REMARK  1 active torsions:
REMARK  status: ('A' for Active; 'I' for Inactive)
REMARK    1  A    between atoms: C_1  and  C_2
REMARK                            x       y       z     vdW  Elec       q    Type
REMARK                         _______ _______ _______ _____ _____    ______ ____
ROOT
ATOM      1  C   UNL     1      -4.093  18.244  63.986  0.00  0.00    +0.000 C 
ATOM      2  C   UNL     1      -4.855  19.218  63.139  0.00  0.00    +0.000 A 
ATOM      3  C   UNL     1      -4.868  19.101  61.744  0.00  0.00    +0.000 A 
ATOM      4  C   UNL     1      -5.569  20.024  60.965  0.00  0.00    +0.000 A 
ATOM      5  C   UNL     1      -6.263  21.068  61.573  0.00  0.00    +0.000 A 
ATOM      6  C   UNL     1      -6.261  21.189  62.962  0.00  0.00    +0.000 A 
ATOM      7  C   UNL     1      -5.560  20.267  63.741  0.00  0.00    +0.000 A 
ENDROOT
TORSDOF 0
ENDMDL
MODEL 6
REMARK VINA RESULT:      -3.2      1.863      3.213
REMARK  Name = benzene
REMARK  1 active torsions:
REMARK  status: ('A' for Active; 'I' for Inactive)
REMARK    1  A    between atoms: C_1  and  C_2
REMARK                            x       y       z     vdW  Elec       q    Type
REMARK                         _______ _______ _______ _____ _____    ______ ____
ROOT
ATOM      1  C   UNL     1      -4.501  18.222  60.478  0.00  0.00    +0.000 C 
ATOM      2  C   UNL     1      -5.096  19.207  61.438  0.00  0.00    +0.000 A 
ATOM      3  C   UNL     1      -5.694  20.387  60.980  0.00  0.00    +0.000 A 
ATOM      4  C   UNL     1      -6.231  21.304  61.885  0.00  0.00    +0.000 A 
ATOM      5  C   UNL     1      -6.176  21.049  63.254  0.00  0.00    +0.000 A 
ATOM      6  C   UNL     1      -5.589  19.874  63.720  0.00  0.00    +0.000 A 
ATOM      7  C   UNL     1      -5.051  18.957  62.815  0.00  0.00    +0.000 A 
ENDROOT
TORSDOF 0
ENDMDL
MODEL 7
REMARK VINA RESULT:      -2.9     16.005     17.008
REMARK  Name = benzene
REMARK  1 active torsions:
REMARK  status: ('A' for Active; 'I' for Inactive)
REMARK    1  A    between atoms: C_1  and  C_2
REMARK                            x       y       z     vdW  Elec       q    Type
REMARK                         _______ _______ _______ _____ _____    ______ ____
ROOT
ATOM      1  C   UNL     1      -6.566  12.320  76.495  0.00  0.00    +0.000 C 
ATOM      2  C   UNL     1      -6.357  10.941  77.044  0.00  0.00    +0.000 A 
ATOM      3  C   UNL     1      -5.506  10.722  78.133  0.00  0.00    +0.000 A 
ATOM      4  C   UNL     1      -5.307   9.430  78.625  0.00  0.00    +0.000 A 
ATOM      5  C   UNL     1      -5.958   8.349  78.033  0.00  0.00    +0.000 A 
ATOM      6  C   UNL     1      -6.812   8.559  76.952  0.00  0.00    +0.000 A 
ATOM      7  C   UNL     1      -7.011   9.849  76.459  0.00  0.00    +0.000 A 
ENDROOT
TORSDOF 0
ENDMDL
MODEL 8
REMARK VINA RESULT:      -2.8     15.869     16.985
REMARK  Name = benzene
REMARK  1 active torsions:
REMARK  status: ('A' for Active; 'I' for Inactive)
REMARK    1  A    between atoms: C_1  and  C_2
REMARK                            x       y       z     vdW  Elec       q    Type
REMARK                         _______ _______ _______ _____ _____    ______ ____
ROOT
ATOM      1  C   UNL     1      -7.026   7.979  77.121  0.00  0.00    +0.000 C 
ATOM      2  C   UNL     1      -6.521   9.379  77.294  0.00  0.00    +0.000 A 
ATOM      3  C   UNL     1      -5.497   9.668  78.203  0.00  0.00    +0.000 A 
ATOM      4  C   UNL     1      -5.046  10.979  78.367  0.00  0.00    +0.000 A 
ATOM      5  C   UNL     1      -5.614  12.011  77.621  0.00  0.00    +0.000 A 
ATOM      6  C   UNL     1      -6.629  11.733  76.708  0.00  0.00    +0.000 A 
ATOM      7  C   UNL     1      -7.081  10.422  76.545  0.00  0.00    +0.000 A 
ENDROOT
TORSDOF 0
ENDMDL
MODEL 9
REMARK VINA RESULT:      -2.8     15.967     17.149
REMARK  Name = benzene
REMARK  1 active torsions:
REMARK  status: ('A' for Active; 'I' for Inactive)
REMARK    1  A    between atoms: C_1  and  C_2
REMARK                            x       y       z     vdW  Elec       q    Type
REMARK                         _______ _______ _______ _____ _____    ______ ____
ROOT
ATOM      1  C   UNL     1      -5.726   8.279  78.586  0.00  0.00    +0.000 C 
ATOM      2  C   UNL     1      -5.840   9.684  78.076  0.00  0.00    +0.000 A 
ATOM      3  C   UNL     1      -6.733  10.006  77.047  0.00  0.00    +0.000 A 
ATOM      4  C   UNL     1      -6.818  11.315  76.570  0.00  0.00    +0.000 A 
ATOM      5  C   UNL     1      -6.015  12.313  77.118  0.00  0.00    +0.000 A 
ATOM      6  C   UNL     1      -5.128  12.004  78.148  0.00  0.00    +0.000 A 
ATOM      7  C   UNL     1      -5.041  10.695  78.625  0.00  0.00    +0.000 A 
ENDROOT
TORSDOF 0
ENDMDL
