MODEL 1
REMARK VINA RESULT:      -3.1      0.000      0.000
REMARK  Name = ibuprofen
REMARK  5 active torsions:
REMARK  status: ('A' for Active; 'I' for Inactive)
REMARK    1  A    between atoms: C_1  and  C_2
REMARK    2  A    between atoms: C_2  and  C_3
REMARK    3  A    between atoms: C_2  and  O_4
REMARK    4  A    between atoms: O_4  and  C_5
REMARK    5  A    between atoms: C_5  and  C_7
REMARK                            x       y       z     vdW  Elec       q    Type
REMARK                         _______ _______ _______ _____ _____    ______ ____
ROOT
ATOM      1  O   UNL     1      -5.044  18.105  71.531  0.00  0.00    +0.000 OA
ENDROOT
BRANCH   1   3
ATOM      2  C   UNL     1      -3.548  17.266  69.811  0.00  0.00    +0.000 C 
ATOM      3  C   UNL     1      -4.998  17.597  70.175  0.00  0.00    +0.000 C 
ATOM      4  C   UNL     1      -5.831  16.323  70.037  0.00  0.00    +0.000 C 
ENDBRANCH   1   3
BRANCH   1   5
ATOM      5  C   UNL     1      -4.968  19.460  71.668  0.00  0.00    +0.000 C 
ATOM      6  O   UNL     1      -4.118  20.062  72.317  0.00  0.00    +0.000 OA
ATOM      7  C   UNL     1      -6.050  20.177  70.918  0.00  0.00    +0.000 C 
ENDBRANCH   1   5
TORSDOF 2
ENDMDL
MODEL 2
REMARK VINA RESULT:      -3.1      2.657      3.706
REMARK  Name = ibuprofen
REMARK  5 active torsions:
REMARK  status: ('A' for Active; 'I' for Inactive)
REMARK    1  A    between atoms: C_1  and  C_2
REMARK    2  A    between atoms: C_2  and  C_3
REMARK    3  A    between atoms: C_2  and  O_4
REMARK    4  A    between atoms: O_4  and  C_5
REMARK    5  A    between atoms: C_5  and  C_7
REMARK                            x       y       z     vdW  Elec       q    Type
REMARK                         _______ _______ _______ _____ _____    ______ ____
ROOT
ATOM      1  O   UNL     1      -3.254  20.322  72.444  0.00  0.00    +0.000 OA
ENDROOT
BRANCH   1   3
ATOM      2  C   UNL     1      -0.877  20.436  72.931  0.00  0.00    +0.000 C 
ATOM      3  C   UNL     1      -1.969  20.699  71.890  0.00  0.00    +0.000 C 
ATOM      4  C   UNL     1      -1.648  19.880  70.640  0.00  0.00    +0.000 C 
ENDBRANCH   1   3
BRANCH   1   5
ATOM      5  C   UNL     1      -4.348  20.898  71.869  0.00  0.00    +0.000 C 
ATOM      6  O   UNL     1      -4.504  22.102  71.687  0.00  0.00    +0.000 OA
ATOM      7  C   UNL     1      -5.379  19.891  71.453  0.00  0.00    +0.000 C 
ENDBRANCH   1   5
TORSDOF 2
ENDMDL
MODEL 3
REMARK VINA RESULT:      -2.8      9.774     10.051
REMARK  Name = ibuprofen
REMARK  5 active torsions:
REMARK  status: ('A' for Active; 'I' for Inactive)
REMARK    1  A    between atoms: C_1  and  C_2
REMARK    2  A    between atoms: C_2  and  C_3
REMARK    3  A    between atoms: C_2  and  O_4
REMARK    4  A    between atoms: O_4  and  C_5
REMARK    5  A    between atoms: C_5  and  C_7
REMARK                            x       y       z     vdW  Elec       q    Type
REMARK                         _______ _______ _______ _____ _____    ______ ____
ROOT
ATOM      1  O   UNL     1      -5.339  21.169  61.229  0.00  0.00    +0.000 OA
ENDROOT
BRANCH   1   3
ATOM      2  C   UNL     1      -6.152  19.966  59.282  0.00  0.00    +0.000 C 
ATOM      3  C   UNL     1      -5.473  19.848  60.649  0.00  0.00    +0.000 C 
ATOM      4  C   UNL     1      -4.107  19.193  60.452  0.00  0.00    +0.000 C 
ENDBRANCH   1   3
BRANCH   1   5
ATOM      5  C   UNL     1      -6.210  21.476  62.232  0.00  0.00    +0.000 C 
ATOM      6  O   UNL     1      -7.115  22.302  62.158  0.00  0.00    +0.000 OA
ATOM      7  C   UNL     1      -5.963  20.677  63.476  0.00  0.00    +0.000 C 
ENDBRANCH   1   5
TORSDOF 2
ENDMDL
MODEL 4
REMARK VINA RESULT:      -2.6     12.333     13.692
REMARK  Name = ibuprofen
REMARK  5 active torsions:
REMARK  status: ('A' for Active; 'I' for Inactive)
REMARK    1  A    between atoms: C_1  and  C_2
REMARK    2  A    between atoms: C_2  and  C_3
REMARK    3  A    between atoms: C_2  and  O_4
REMARK    4  A    between atoms: O_4  and  C_5
REMARK    5  A    between atoms: C_5  and  C_7
REMARK                            x       y       z     vdW  Elec       q    Type
REMARK                         _______ _______ _______ _____ _____    ______ ____
ROOT
ATOM      1  O   UNL     1      -9.277   6.347  65.388  0.00  0.00    +0.000 OA
ENDROOT
BRANCH   1   3
ATOM      2  C   UNL     1     -11.031   6.328  67.069  0.00  0.00    +0.000 C 
ATOM      3  C   UNL     1      -9.660   5.777  66.664  0.00  0.00    +0.000 C 
ATOM      4  C   UNL     1      -9.761   4.254  66.577  0.00  0.00    +0.000 C 
ENDBRANCH   1   3
BRANCH   1   5
ATOM      5  C   UNL     1      -8.724   7.593  65.429  0.00  0.00    +0.000 C 
ATOM      6  O   UNL     1      -9.290   8.632  65.101  0.00  0.00    +0.000 OA
ATOM      7  C   UNL     1      -7.315   7.583  65.942  0.00  0.00    +0.000 C 
ENDBRANCH   1   5
TORSDOF 2
ENDMDL
MODEL 5
REMARK VINA RESULT:      -2.5      1.646      3.232
REMARK  Name = ibuprofen
REMARK  5 active torsions:
REMARK  status: ('A' for Active; 'I' for Inactive)
REMARK    1  A    between atoms: C_1  and  C_2
REMARK    2  A    between atoms: C_2  and  C_3
REMARK    3  A    between atoms: C_2  and  O_4
REMARK    4  A    between atoms: O_4  and  C_5
REMARK    5  A    between atoms: C_5  and  C_7
REMARK                            x       y       z     vdW  Elec       q    Type
REMARK                         _______ _______ _______ _____ _____    ______ ____
ROOT
ATOM      1  O   UNL     1      -5.700  17.840  70.398  0.00  0.00    +0.000 OA
ENDROOT
BRANCH   1   3
ATOM      2  C   UNL     1      -3.737  19.267  70.498  0.00  0.00    +0.000 C 
ATOM      3  C   UNL     1      -5.097  18.940  71.122  0.00  0.00    +0.000 C 
ATOM      4  C   UNL     1      -5.972  20.191  71.048  0.00  0.00    +0.000 C 
ENDBRANCH   1   3
BRANCH   1   5
ATOM      5  C   UNL     1      -5.115  16.619  70.564  0.00  0.00    +0.000 C 
ATOM      6  O   UNL     1      -4.811  16.118  71.643  0.00  0.00    +0.000 OA
ATOM      7  C   UNL     1      -4.879  15.910  69.264  0.00  0.00    +0.000 C 
ENDBRANCH   1   5
TORSDOF 2
ENDMDL
MODEL 6
REMARK VINA RESULT:      -2.5     14.412     15.212
REMARK  Name = ibuprofen
REMARK  5 active torsions:
REMARK  status: ('A' for Active; 'I' for Inactive)
REMARK    1  A    between atoms: C_1  and  C_2
REMARK    2  A    between atoms: C_2  and  C_3
REMARK    3  A    between atoms: C_2  and  O_4
REMARK    4  A    between atoms: O_4  and  C_5
REMARK    5  A    between atoms: C_5  and  C_7
REMARK                            x       y       z     vdW  Elec       q    Type
REMARK                         _______ _______ _______ _____ _____    ______ ____
ROOT
ATOM      1  O   UNL     1      -9.309   4.479  66.766  0.00  0.00    +0.000 OA
ENDROOT
BRANCH   1   3
ATOM      2  C   UNL     1      -9.383   3.256  68.864  0.00  0.00    +0.000 C 
ATOM      3  C   UNL     1      -9.141   4.614  68.199  0.00  0.00    +0.000 C 
ATOM      4  C   UNL     1      -7.725   5.074  68.545  0.00  0.00    +0.000 C 
ENDBRANCH   1   3
BRANCH   1   5
ATOM      5  C   UNL     1     -10.448   5.014  66.241  0.00  0.00    +0.000 C 
ATOM      6  O   UNL     1     -11.017   4.619  65.228  0.00  0.00    +0.000 OA
ATOM      7  C   UNL     1     -10.969   6.165  67.049  0.00  0.00    +0.000 C 
ENDBRANCH   1   5
TORSDOF 2
ENDMDL
MODEL 7
REMARK VINA RESULT:      -2.4      9.161     10.204
REMARK  Name = ibuprofen
REMARK  5 active torsions:
REMARK  status: ('A' for Active; 'I' for Inactive)
REMARK    1  A    between atoms: C_1  and  C_2
REMARK    2  A    between atoms: C_2  and  C_3
REMARK    3  A    between atoms: C_2  and  O_4
REMARK    4  A    between atoms: O_4  and  C_5
REMARK    5  A    between atoms: C_5  and  C_7
REMARK                            x       y       z     vdW  Elec       q    Type
REMARK                         _______ _______ _______ _____ _____    ______ ____
ROOT
ATOM      1  O   UNL     1      -7.374  10.249  76.238  0.00  0.00    +0.000 OA
ENDROOT
BRANCH   1   3
ATOM      2  C   UNL     1      -7.214   7.894  76.808  0.00  0.00    +0.000 C 
ATOM      3  C   UNL     1      -6.519   9.084  76.140  0.00  0.00    +0.000 C 
ATOM      4  C   UNL     1      -6.246   8.723  74.680  0.00  0.00    +0.000 C 
ENDBRANCH   1   3
BRANCH   1   5
ATOM      5  C   UNL     1      -6.768  11.408  76.627  0.00  0.00    +0.000 C 
ATOM      6  O   UNL     1      -7.081  12.533  76.252  0.00  0.00    +0.000 OA
ATOM      7  C   UNL     1      -5.651  11.175  77.600  0.00  0.00    +0.000 C 
ENDBRANCH   1   5
TORSDOF 2
ENDMDL
MODEL 8
REMARK VINA RESULT:      -2.4      9.367      9.755
REMARK  Name = ibuprofen
REMARK  5 active torsions:
REMARK  status: ('A' for Active; 'I' for Inactive)
REMARK    1  A    between atoms: C_1  and  C_2
REMARK    2  A    between atoms: C_2  and  C_3
REMARK    3  A    between atoms: C_2  and  O_4
REMARK    4  A    between atoms: O_4  and  C_5
REMARK    5  A    between atoms: C_5  and  C_7
REMARK                            x       y       z     vdW  Elec       q    Type
REMARK                         _______ _______ _______ _____ _____    ______ ____
ROOT
ATOM      1  O   UNL     1      -5.220  21.184  61.251  0.00  0.00    +0.000 OA
ENDROOT
BRANCH   1   3
ATOM      2  C   UNL     1      -3.325  19.723  60.835  0.00  0.00    +0.000 C 
ATOM      3  C   UNL     1      -3.880  20.861  61.696  0.00  0.00    +0.000 C 
ATOM      4  C   UNL     1      -2.949  22.065  61.558  0.00  0.00    +0.000 C 
ENDBRANCH   1   3
BRANCH   1   5
ATOM      5  C   UNL     1      -6.127  21.465  62.230  0.00  0.00    +0.000 C 
ATOM      6  O   UNL     1      -7.065  22.250  62.125  0.00  0.00    +0.000 OA
ATOM      7  C   UNL     1      -5.874  20.692  63.489  0.00  0.00    +0.000 C 
ENDBRANCH   1   5
TORSDOF 2
ENDMDL
MODEL 9
REMARK VINA RESULT:      -2.4     10.293     11.380
REMARK  Name = ibuprofen
REMARK  5 active torsions:
REMARK  status: ('A' for Active; 'I' for Inactive)
REMARK    1  A    between atoms: C_1  and  C_2
REMARK    2  A    between atoms: C_2  and  C_3
REMARK    3  A    between atoms: C_2  and  O_4
REMARK    4  A    between atoms: O_4  and  C_5
REMARK    5  A    between atoms: C_5  and  C_7
REMARK                            x       y       z     vdW  Elec       q    Type
REMARK                         _______ _______ _______ _____ _____    ______ ____
ROOT
ATOM      1  O   UNL     1      -7.374   9.115  74.828  0.00  0.00    +0.000 OA
ENDROOT
BRANCH   1   3
ATOM      2  C   UNL     1      -5.438   8.939  76.284  0.00  0.00    +0.000 C 
ATOM      3  C   UNL     1      -6.933   9.261  76.200  0.00  0.00    +0.000 C 
ATOM      4  C   UNL     1      -7.146  10.690  76.697  0.00  0.00    +0.000 C 
ENDBRANCH   1   3
BRANCH   1   5
ATOM      5  C   UNL     1      -8.014   7.950  74.523  0.00  0.00    +0.000 C 
ATOM      6  O   UNL     1      -8.265   7.049  75.317  0.00  0.00    +0.000 OA
ATOM      7  C   UNL     1      -8.408   7.869  73.078  0.00  0.00    +0.000 C 
ENDBRANCH   1   5
TORSDOF 2
ENDMDL
