REMARK  Name = ethyl_benzoate
REMARK  4 active torsions:
REMARK  status: ('A' for Active; 'I' for Inactive)
REMARK    1  A    between atoms: C_1  and  C_2
REMARK    2  A    between atoms: C_2  and  O_3
REMARK    3  A    between atoms: O_3  and  C_4
REMARK    4  A    between atoms: C_4  and  C_6
REMARK                            x       y       z     vdW  Elec       q    Type
REMARK                         _______ _______ _______ _____ _____    ______ ____
ROOT
ATOM      1  C   UNL     1       4.776  -2.765  -0.812  0.00  0.00    +0.000 A 
ATOM      2  C   UNL     1       5.870  -3.323  -0.133  0.00  0.00    +0.000 A 
ATOM      3  C   UNL     1       6.457  -4.508  -0.585  0.00  0.00    +0.000 A 
ATOM      4  C   UNL     1       5.917  -5.177  -1.682  0.00  0.00    +0.000 A 
ATOM      5  C   UNL     1       4.817  -4.639  -2.351  0.00  0.00    +0.000 A 
ATOM      6  C   UNL     1       4.248  -3.430  -1.924  0.00  0.00    +0.000 A 
ENDROOT
BRANCH   1   7
ATOM      7  C   UNL     1       4.320  -1.410  -0.409  0.00  0.00    +0.000 C 
ATOM      8  O   UNL     1       5.113  -0.535  -0.077  0.00  0.00    +0.000 OA
BRANCH   7   9
ATOM      9  O   UNL     1       2.967  -1.285  -0.425  0.00  0.00    +0.000 OA
BRANCH   9  11
ATOM     10  C   UNL     1       0.986   0.042   0.022  0.00  0.00    +0.000 C 
ATOM     11  C   UNL     1       2.505   0.012   0.007  0.00  0.00    +0.000 C 
ENDBRANCH   9  11
ENDBRANCH   7   9
ENDBRANCH   1   7
TORSDOF 3
