REMARK  Name = methylxanthine
REMARK  1 active torsions:
REMARK  status: ('A' for Active; 'I' for Inactive)
REMARK    1  A    between atoms: C_1  and  N_2
REMARK                            x       y       z     vdW  Elec       q    Type
REMARK                         _______ _______ _______ _____ _____    ______ ____
ROOT
ATOM      1  C   UNL     1       0.935  -0.001  -0.048  0.00  0.00    +0.000 C 
ATOM      2  N   UNL     1       2.375  -0.023  -0.048  0.00  0.00    +0.000 N 
ATOM      3  C   UNL     1       3.217   1.060  -0.048  0.00  0.00    +0.000 A 
ATOM      4  N   UNL     1       4.488   0.696  -0.049  0.00  0.00    +0.000 NA
ATOM      5  C   UNL     1       4.442  -0.659  -0.049  0.00  0.00    +0.000 A 
ATOM      6  C   UNL     1       3.163  -1.134  -0.048  0.00  0.00    +0.000 A 
ATOM      7  C   UNL     1       2.859  -2.522  -0.047  0.00  0.00    +0.000 A 
ATOM      8  O   UNL     1       1.726  -2.991  -0.042  0.00  0.00    +0.000 OA
ATOM      9  N   UNL     1       3.990  -3.311  -0.052  0.00  0.00    +0.000 N 
ATOM     10  C   UNL     1       5.299  -2.872  -0.049  0.00  0.00    +0.000 A 
ATOM     11  O   UNL     1       6.232  -3.672  -0.045  0.00  0.00    +0.000 OA
ATOM     12  N   UNL     1       5.503  -1.514  -0.049  0.00  0.00    +0.000 N 
ATOM     13  H   UNL     1       3.848  -4.308  -0.052  0.00  0.00    +0.000 HD
ATOM     14  H   UNL     1       6.442  -1.145  -0.048  0.00  0.00    +0.000 HD
ENDROOT
TORSDOF 0
