REMARK  Name = paracetamol
REMARK  5 active torsions:
REMARK  status: ('A' for Active; 'I' for Inactive)
REMARK    1  A    between atoms: C_1  and  C_2
REMARK    2  A    between atoms: C_4  and  C_9
REMARK    3  A    between atoms: C_5  and  O_8
REMARK    4  A    between atoms: C_9  and  C_10
REMARK    5  A    between atoms: C_9  and  C_11
REMARK                            x       y       z     vdW  Elec       q    Type
REMARK                         _______ _______ _______ _____ _____    ______ ____
ROOT
ATOM      1  C   UNL     1       2.996   0.050   0.072  0.00  0.00    +0.000 C 
ATOM      2  C   UNL     1       1.499  -0.002   0.012  0.00  0.00    +0.000 A 
ATOM      3  C   UNL     1       0.714   1.164  -0.002  0.00  0.00    +0.000 A 
ATOM      4  C   UNL     1      -0.707   1.130  -0.045  0.00  0.00    +0.000 A 
ATOM      5  C   UNL     1      -1.299  -0.145  -0.031  0.00  0.00    +0.000 A 
ATOM      6  C   UNL     1      -0.518  -1.305  -0.033  0.00  0.00    +0.000 A 
ATOM      7  C   UNL     1       0.866  -1.240  -0.020  0.00  0.00    +0.000 A 
ENDROOT
BRANCH   4   8
ATOM      8  C   UNL     1      -1.409   2.492  -0.110  0.00  0.00    +0.000 C 
ATOM      9  C   UNL     1      -0.996   3.275  -1.370  0.00  0.00    +0.000 C 
ATOM     10  C   UNL     1      -2.935   2.490  -0.061  0.00  0.00    +0.000 C 
ENDBRANCH   4   8
BRANCH   5  11
ATOM     11  O   UNL     1      -2.627  -0.455  -0.026  0.00  0.00    +0.000 OA
ATOM     12  H   UNL     1      -3.181   0.314   0.136  0.00  0.00    +0.000 HD
ENDBRANCH   5  11
TORSDOF 2
