REMARK  Name = benzene
REMARK  1 active torsions:
REMARK  status: ('A' for Active; 'I' for Inactive)
REMARK    1  A    between atoms: C_1  and  C_2
REMARK                            x       y       z     vdW  Elec       q    Type
REMARK                         _______ _______ _______ _____ _____    ______ ____
ROOT
ATOM      1  C   UNL     1       2.489   0.001  -0.012  0.00  0.00    +0.000 C 
ATOM      2  C   UNL     1       0.990  -0.006   0.001  0.00  0.00    +0.000 A 
ATOM      3  C   UNL     1       0.276  -1.210   0.003  0.00  0.00    +0.000 A 
ATOM      4  C   UNL     1      -1.120  -1.203  -0.001  0.00  0.00    +0.000 A 
ATOM      5  C   UNL     1      -1.813   0.006  -0.005  0.00  0.00    +0.000 A 
ATOM      6  C   UNL     1      -1.111   1.210  -0.000  0.00  0.00    +0.000 A 
ATOM      7  C   UNL     1       0.285   1.204   0.003  0.00  0.00    +0.000 A 
ENDROOT
TORSDOF 0
