REMARK  Name = acetic_acid_anhydride
REMARK  4 active torsions:
REMARK  status: ('A' for Active; 'I' for Inactive)
REMARK    1  A    between atoms: C_1  and  C_2
REMARK    2  A    between atoms: C_2  and  O_4
REMARK    3  A    between atoms: O_4  and  C_5
REMARK    4  A    between atoms: C_5  and  C_7
REMARK                            x       y       z     vdW  Elec       q    Type
REMARK                         _______ _______ _______ _____ _____    ______ ____
ROOT
ATOM      1  O   UNL     1       3.296  -1.041   0.336  0.00  0.00    +0.000 OA
ENDROOT
BRANCH   1   3
ATOM      2  C   UNL     1       1.158  -0.029  -0.030  0.00  0.00    +0.000 C 
ATOM      3  C   UNL     1       2.658   0.096  -0.076  0.00  0.00    +0.000 C 
ATOM      4  O   UNL     1       3.174   1.144  -0.455  0.00  0.00    +0.000 OA
ENDBRANCH   1   3
BRANCH   1   5
ATOM      5  C   UNL     1       4.662  -0.994   0.319  0.00  0.00    +0.000 C 
ATOM      6  O   UNL     1       5.371  -0.051  -0.022  0.00  0.00    +0.000 OA
ATOM      7  C   UNL     1       5.307  -2.273   0.782  0.00  0.00    +0.000 C 
ENDBRANCH   1   5
TORSDOF 2
