REMARK  Name = naphthalene
REMARK  0 active torsions:
REMARK  status: ('A' for Active; 'I' for Inactive)
REMARK                            x       y       z     vdW  Elec       q    Type
REMARK                         _______ _______ _______ _____ _____    ______ ____
ROOT
ATOM      1  C   UNL     1       2.434  -0.695  -0.021  0.00  0.00    +0.000 A 
ATOM      2  C   UNL     1       2.433   0.697  -0.010  0.00  0.00    +0.000 A 
ATOM      3  C   UNL     1       1.224   1.393   0.019  0.00  0.00    +0.000 A 
ATOM      4  C   UNL     1       0.001   0.706   0.014  0.00  0.00    +0.000 A 
ATOM      5  C   UNL     1      -0.001  -0.708   0.014  0.00  0.00    +0.000 A 
ATOM      6  C   UNL     1       1.226  -1.394   0.004  0.00  0.00    +0.000 A 
ATOM      7  C   UNL     1      -1.228  -1.392   0.013  0.00  0.00    +0.000 A 
ATOM      8  C   UNL     1      -2.435  -0.691  -0.003  0.00  0.00    +0.000 A 
ATOM      9  C   UNL     1      -2.432   0.701  -0.011  0.00  0.00    +0.000 A 
ATOM     10  C   UNL     1      -1.222   1.396   0.001  0.00  0.00    +0.000 A 
ENDROOT
TORSDOF 0
