REMARK  Name = ibuprofen
REMARK  5 active torsions:
REMARK  status: ('A' for Active; 'I' for Inactive)
REMARK    1  A    between atoms: C_1  and  C_2
REMARK    2  A    between atoms: C_2  and  C_3
REMARK    3  A    between atoms: C_2  and  O_4
REMARK    4  A    between atoms: O_4  and  C_5
REMARK    5  A    between atoms: C_5  and  C_7
REMARK                            x       y       z     vdW  Elec       q    Type
REMARK                         _______ _______ _______ _____ _____    ______ ____
ROOT
ATOM      1  O   UNL     1       2.988   1.066   0.991  0.00  0.00    +0.000 OA
ENDROOT
BRANCH   1   3
ATOM      2  C   UNL     1       0.971   0.077   0.067  0.00  0.00    +0.000 C 
ATOM      3  C   UNL     1       2.502   0.094   0.033  0.00  0.00    +0.000 C 
ATOM      4  C   UNL     1       2.947   0.450  -1.385  0.00  0.00    +0.000 C 
ENDBRANCH   1   3
BRANCH   1   5
ATOM      5  C   UNL     1       4.340   1.115   1.164  0.00  0.00    +0.000 C 
ATOM      6  O   UNL     1       5.157   0.413   0.576  0.00  0.00    +0.000 OA
ATOM      7  C   UNL     1       4.756   2.150   2.166  0.00  0.00    +0.000 C 
ENDBRANCH   1   5
TORSDOF 2
