REMARK  Name = alanine
REMARK  4 active torsions:
REMARK  status: ('A' for Active; 'I' for Inactive)
REMARK    1  A    between atoms: CB_1  and  CA_2
REMARK    2  A    between atoms: CA_2  and  C_3
REMARK    3  A    between atoms: CA_2  and  N_6
REMARK    4  A    between atoms: C_3  and  OXT_5
REMARK                            x       y       z     vdW  Elec       q    Type
REMARK                         _______ _______ _______ _____ _____    ______ ____
ROOT
ATOM      1  CB  ALA A   1       1.065  -0.016   0.064  0.00  0.00    +0.000 C 
ATOM      2  CA  ALA A   1       2.587  -0.030   0.044  0.00  0.00    +0.000 C 
ENDROOT
BRANCH   2   3
ATOM      3  N   ALA A   1       3.062   1.345   0.316  0.00  0.00    +0.000 NA
ATOM      4  H1  ALA A   1       2.772   1.938  -0.468  0.00  0.00    +0.000 HD
ATOM      5  H2  ALA A   1       4.083   1.349   0.238  0.00  0.00    +0.000 HD
ENDBRANCH   2   3
BRANCH   2   6
ATOM      6  C   ALA A   1       3.129  -0.519  -1.314  0.00  0.00    +0.000 C 
ATOM      7  O   ALA A   1       3.850   0.158  -2.038  0.00  0.00    +0.000 OA
BRANCH   6   8
ATOM      8  OXT ALA A   1       2.778  -1.781  -1.647  0.00  0.00    +0.000 OA
ATOM      9  HXT ALA A   1       2.221  -2.253  -1.000  0.00  0.00    +0.000 HD
ENDBRANCH   6   8
ENDBRANCH   2   6
TORSDOF 3
