REMARK  Name = benzaldehyde
REMARK  1 active torsions:
REMARK  status: ('A' for Active; 'I' for Inactive)
REMARK    1  A    between atoms: C_4  and  C_7
REMARK                            x       y       z     vdW  Elec       q    Type
REMARK                         _______ _______ _______ _____ _____    ______ ____
ROOT
ATOM      1  C   UNL     1       1.361  -0.215   0.014  0.00  0.00    +0.000 A 
ATOM      2  C   UNL     1       0.853   1.086   0.005  0.00  0.00    +0.000 A 
ATOM      3  C   UNL     1      -0.527   1.298   0.020  0.00  0.00    +0.000 A 
ATOM      4  C   UNL     1      -1.393   0.202  -0.031  0.00  0.00    +0.000 A 
ATOM      5  C   UNL     1      -0.886  -1.101  -0.017  0.00  0.00    +0.000 A 
ATOM      6  C   UNL     1       0.493  -1.307   0.015  0.00  0.00    +0.000 A 
ENDROOT
BRANCH   4   7
ATOM      7  C   UNL     1      -2.845   0.430  -0.163  0.00  0.00    +0.000 C 
ATOM      8  O   UNL     1      -3.645  -0.496  -0.268  0.00  0.00    +0.000 OA
ENDBRANCH   4   7
TORSDOF 1
