REMARK  Name = diethylamine
REMARK  6 active torsions:
REMARK  status: ('A' for Active; 'I' for Inactive)
REMARK    1  A    between atoms: C_1  and  C_2
REMARK    2  A    between atoms: C_2  and  N_3
REMARK    3  A    between atoms: N_3  and  C_4
REMARK    4  A    between atoms: N_3  and  C_6
REMARK    5  A    between atoms: C_4  and  C_5
REMARK    6  A    between atoms: C_6  and  C_7
REMARK                            x       y       z     vdW  Elec       q    Type
REMARK                         _______ _______ _______ _____ _____    ______ ____
ROOT
ATOM      1  N   UNL     1       2.985   0.368   1.380  0.00  0.00    +0.000 NA
ENDROOT
BRANCH   1   3
ATOM      2  C   UNL     1       1.069   0.203  -0.306  0.00  0.00    +0.000 C 
ATOM      3  C   UNL     1       2.560   0.079  -0.010  0.00  0.00    +0.000 C 
ENDBRANCH   1   3
BRANCH   1   4
ATOM      4  C   UNL     1       2.503  -0.616   2.369  0.00  0.00    +0.000 C 
ATOM      5  C   UNL     1       1.006  -0.640   2.647  0.00  0.00    +0.000 C 
ENDBRANCH   1   4
BRANCH   1   6
ATOM      6  C   UNL     1       4.472   0.423   1.398  0.00  0.00    +0.000 C 
ATOM      7  C   UNL     1       5.087   0.838   2.735  0.00  0.00    +0.000 C 
ENDBRANCH   1   6
TORSDOF 3
